60

H    1.5386393016    3.0400887541    4.1222925704
H    1.5386393016    4.2519603018    2.8655896514
N    1.9174062156    3.3881101822    3.2452275505
C    2.99194753    2.814345481    2.6919312177
H    3.1627731127    1.3535636861    4.1222925704
H    3.1627731127    4.1907230949    1.1801767021
N    3.5248185141    1.7189489851    3.2452275505
N    3.5248185141    3.3275034521    1.5771670222
H    4.3737841601    1.30790308    2.8655896514
H    4.3737841601    2.9331909412    1.1801767021
F    -0.1518646079    -0.2131645665    -0.2275760352
F    0.4476248287    0.3641473762    1.9392645873
F    0.4476248287    1.9732092296    0.2706779027
B    0.6840559359    0.5918319583    0.5487032028
F    2.0555441534    0.303521529    0.2706779027
F    0.050702424022729675    -0.01809129318841482    5.14136611006297
F    0.6501918606227297    0.5592206495115852    7.3082067325629705
F    0.6501918606227297    2.168282502911585    5.63962004796297
B    0.8866229678227298    0.7869052316115852    5.91764534806297
F    2.2581111853227296    0.4985948023115852    5.63962004796297
F    0.050702424022729675    5.159320272114385    -0.2275760352
F    0.6501918606227297    5.736632214814385    1.9392645873
F    0.6501918606227297    7.345694068214385    0.2706779027
B    0.8866229678227298    5.964316796914385    0.5487032028
F    2.2581111853227296    5.676006367614385    0.2706779027
F    5.224437722099999    -0.2131645665    -0.2275760352
F    5.8239271587    0.3641473762    1.9392645873
F    5.8239271587    1.9732092296    0.2706779027
B    6.0603582659    0.5918319583    0.5487032028
F    7.431846483399999    0.303521529    0.2706779027
H    -3.8376630283999997    3.0400887541    4.1222925704
H    -3.8376630283999997    4.2519603018    2.8655896514
N    -3.4588961144    3.3881101822    3.2452275505
C    -2.3843547999999997    2.814345481    2.6919312177
H    -2.2135292172999996    1.3535636861    4.1222925704
H    -2.2135292172999996    4.1907230949    1.1801767021
N    -1.8514838158999996    1.7189489851    3.2452275505
N    -1.8514838158999996    3.3275034521    1.5771670222
H    -1.0025181699    1.30790308    2.8655896514
H    -1.0025181699    2.9331909412    1.1801767021
H    1.3360722696772702    -2.332396084514385    4.1222925704
H    1.3360722696772702    -1.1205245368143855    2.8655896514
N    1.7148391836772703    -1.984374656414385    3.2452275505
C    2.7893804980772705    -2.558139357614385    2.6919312177
H    2.9602060807772705    -4.018921152514385    4.1222925704
H    2.9602060807772705    -1.181761743714385    1.1801767021
N    3.3222514821772706    -3.653535853514385    3.2452275505
N    3.3222514821772706    -2.044981386514385    1.5771670222
H    4.17121712817727    -4.064581758614385    2.8655896514
H    4.17121712817727    -2.439293897414385    1.1801767021
H    1.3360722696772702    2.845015480788415    -1.2466495748629702
H    1.3360722696772702    4.056887028488415    -2.50335249386297
N    1.7148391836772703    3.193036908888415    -2.12371459476297
C    2.7893804980772705    2.619272207688415    -2.67701092756297
H    2.9602060807772705    1.1584904127884148    -1.2466495748629702
H    2.9602060807772705    3.995649821588415    -4.18876544316297
N    3.3222514821772706    1.5238757117884147    -2.12371459476297
N    3.3222514821772706    3.132430178788415    -3.79177512306297
H    4.17121712817727    1.1128298066884148    -2.50335249386297
H    4.17121712817727    2.7381176678884147    -4.18876544316297
