262

N    2.199    7.197    -5.442
C    2.876    7.997    -4.381
C    2.185    7.781    -3.032
O    2.802    7.86    -1.988
C    2.736    9.452    -4.83
C    3.711    10.328    -4.047
C    5.123    10.089    -4.563
N    5.207    10.854    -5.838
C    6.364    11.037    -6.414
N    7.137    10.017    -6.666
N    6.747    12.242    -6.739
H    3.919    7.73    -4.316
H    2.952    9.528    -5.886
H    1.734    9.789    -4.644
H    3.448    11.368    -4.176
H    3.663    10.069    -3.005
H    5.851    10.451    -3.85
H    5.267    9.04    -4.75
H    4.394    11.219    -6.244
H    6.843    9.094    -6.418
H    8.023    10.158    -7.107
H    6.154    13.024    -6.547
H    7.633    12.383    -7.179
H    2.032    6.232    -5.096
H    2.804    7.162    -6.289
H    1.289    7.637    -5.683
N    0.907    7.508    -3.047
C    0.175    7.286    -1.765
C    0.75    6.076    -1.031
O    0.954    6.106    0.163
C    -1.273    7.024    -2.174
C    -1.995    8.357    -2.353
C    -1.429    9.086    -3.572
N    -1.048    10.328    -3.452
O    -1.33    8.52    -4.641
H    0.43    7.45    -3.902
H    0.228    8.162    -1.144
H    -1.291    6.474    -3.105
H    -1.766    6.452    -1.403
H    -3.048    8.174    -2.498
H    -1.851    8.966    -1.472
H    -1.129    10.785    -2.585
H    -0.682    10.805    -4.231
N    1.033    5.024    -1.751
C    1.618    3.805    -1.147
C    1.026    3.468    0.236
O    1.724    3.057    1.141
C    3.111    4.116    -1.103
C    3.86    2.821    -1.353
C    3.537    4.733    0.239
C    3.511    1.821    -0.25
H    0.886    5.043    -2.711
H    1.462    2.969    -1.815
H    3.332    4.807    -1.898
H    3.546    2.43    -2.313
H    4.925    3.005    -1.357
H    4.024    3.982    0.842
H    2.671    5.106    0.76
H    4.224    5.546    0.057
H    4.112    0.937    -0.358
H    2.464    1.559    -0.324
H    3.699    2.274    0.713
N    -0.256    3.607    0.399
C    -0.875    3.261    1.701
C    -1.838    2.096    1.495
O    -1.814    1.12    2.219
C    -1.591    4.527    2.14
C    -0.552    5.618    2.358
C    -0.778    6.295    3.715
C    0.483    6.168    4.572
N    0.541    7.432    5.36
H    -0.817    3.922    -0.335
H    -0.114    2.994    2.417
H    -2.294    4.834    1.381
H    -2.101    4.342    3.055
H    0.429    5.164    2.337
H    -0.629    6.352    1.573
H    -1.004    7.34    3.56
H    -1.606    5.822    4.224
H    0.403    5.315    5.231
H    1.357    6.082    3.946
H    -0.25    7.458    6.032
H    0.476    8.245    4.713
H    1.439    7.475    5.882
N    -2.643    2.166    0.473
C    -3.56    1.034    0.173
C    -2.697    -0.095    -0.383
O    -2.927    -1.264    -0.144
C    -4.519    1.555    -0.899
C    -5.226    2.811    -0.395
C    -5.558    0.483    -1.226
C    -5.699    3.636    -1.59
H    -2.608    2.941    -0.122
H    -4.097    0.721    1.054
H    -3.96    1.797    -1.788
H    -6.074    2.53    0.213
H    -4.538    3.395    0.19
H    -5.853    0.571    -2.261
H    -6.424    0.615    -0.593
H    -5.133    -0.495    -1.054
H    -6.603    3.203    -1.991
H    -4.932    3.636    -2.352
H    -5.893    4.649    -1.275
N    -1.674    0.282    -1.101
C    -0.723    -0.707    -1.676
C    -0.041    -1.437    -0.544
O    -0.099    -2.643    -0.416
C    0.315    0.137    -2.413
C    -0.291    0.748    -3.611
C    -0.24    0.203    -4.82
C    -1.016    1.995    -3.742
C    -1.398    2.145    -5.094
C    -1.379    2.996    -2.831
N    -0.899    1.019    -5.714
C    -2.118    3.25    -5.529
C    -2.105    4.116    -3.264
C    -2.476    4.243    -4.613
H    -1.518    1.236    -1.244
H    -1.218    -1.386    -2.336
H    0.671    0.916    -1.765
H    1.145    -0.487    -2.71
H    0.237    -0.721    -5.04
H    -1.008    0.84    -6.669
H    -1.09    2.9    -1.791
H    -2.397    3.338    -6.568
H    -2.384    4.883    -2.557
H    -3.035    5.106    -4.942
N    0.586    -0.675    0.291
C    1.284    -1.25    1.477
C    0.323    -2.177    2.227
O    0.727    -3.016    3.009
C    1.635    -0.033    2.34
C    2.136    -0.491    3.689
C    3.489    -0.8    3.865
C    1.245    -0.607    4.764
C    3.953    -1.225    5.115
C    1.71    -1.031    6.014
C    3.063    -1.34    6.19
H    0.579    0.295    0.138
H    2.178    -1.774    1.182
H    2.399    0.551    1.849
H    0.753    0.574    2.476
H    4.173    -0.712    3.035
H    0.199    -0.368    4.627
H    4.998    -1.464    5.251
H    1.023    -1.12    6.843
H    3.422    -1.667    7.155
N    -0.948    -2.005    1.999
C    -1.965    -2.828    2.683
C    -2.307    -4.082    1.869
O    -2.904    -5.012    2.373
C    -3.148    -1.883    2.753
C    -4.01    -2.236    3.955
C    -3.203    -1.932    5.214
N    -4.019    -0.946    5.974
C    -4.079    -1.016    7.277
N    -3.051    -0.659    7.997
N    -5.166    -1.445    7.858
H    -1.246    -1.31    1.378
H    -1.643    -3.084    3.675
H    -2.775    -0.877    2.87
H    -3.72    -1.953    1.846
H    -4.914    -1.643    3.942
H    -4.26    -3.285    3.929
H    -3.056    -2.833    5.791
H    -2.25    -1.495    4.94
H    -4.51    -0.244    5.499
H    -2.219    -0.332    7.551
H    -3.097    -0.713    8.994
H    -5.953    -1.719    7.306
H    -5.212    -1.498    8.856
N    -1.939    -4.113    0.614
C    -2.252    -5.306    -0.225
C    -1.076    -6.287    -0.219
O    -1.152    -7.356    0.356
C    -2.478    -4.752    -1.632
C    -3.919    -4.256    -1.764
C    -4.873    -5.452    -1.781
C    -6.296    -4.966    -2.064
N    -6.913    -6.04    -2.892
H    -1.461    -3.352    0.223
H    -3.147    -5.79    0.128
H    -1.8    -3.928    -1.807
H    -2.299    -5.53    -2.36
H    -4.155    -3.618    -0.925
H    -4.026    -3.7    -2.682
H    -4.569    -6.145    -2.553
H    -4.85    -5.948    -0.823
H    -6.841    -4.841    -1.139
H    -6.275    -4.039    -2.618
H    -7.046    -6.892    -2.311
H    -6.288    -6.26    -3.695
H    -7.834    -5.718    -3.248
N    0.007    -5.935    -0.858
C    1.183    -6.84    -0.897
C    2.06    -6.602    0.347
O    1.658    -6.879    1.46
C    1.922    -6.445    -2.185
C    0.96    -6.225    -3.306
C    1.089    -5.264    -4.239
C    -0.264    -6.944    -3.625
C    -0.835    -6.371    -4.78
C    -0.92    -8.024    -3.035
N    0.023    -5.352    -5.115
C    -2.023    -6.855    -5.33
C    -2.117    -8.521    -3.578
C    -2.668    -7.936    -4.726
H    0.052    -5.074    -1.318
H    0.87    -7.87    -0.948
H    2.46    -5.527    -2.018
H    2.617    -7.224    -2.456
H    1.894    -4.543    -4.289
H    -0.12    -4.778    -5.88
H    -0.504    -8.47    -2.158
H    -2.44    -6.398    -6.215
H    -2.614    -9.358    -3.109
H    -3.587    -8.32    -5.141
N    3.24    -6.072    0.165
C    4.142    -5.785    1.308
C    5.136    -4.74    0.828
O    6.315    -4.797    1.115
C    4.851    -7.099    1.647
C    5.357    -7.761    0.366
C    4.35    -8.822    -0.074
C    4.271    -8.855    -1.601
N    5.325    -9.824    -2.018
H    3.538    -5.837    -0.736
H    3.582    -5.43    2.152
H    5.687    -6.897    2.301
H    4.159    -7.762    2.143
H    5.459    -7.014    -0.406
H    6.313    -8.227    0.551
H    4.661    -9.789    0.295
H    3.379    -8.576    0.331
H    3.296    -9.196    -1.919
H    4.484    -7.88    -2.011
H    5.193    -10.72    -1.507
H    6.262    -9.432    -1.795
H    5.253    -9.995    -3.04
N    4.645    -3.809    0.05
C    5.505    -2.746    -0.535
C    6.641    -2.346    0.415
O    7.776    -2.312    -0.03
C    4.563    -1.569    -0.766
C    3.633    -1.878    -1.941
C    4.449    -1.966    -3.232
C    3.621    -1.424    -4.399
N    4.371    -1.827    -5.621
O    6.353    -2.081    1.571
H    3.693    -3.827    -0.177
H    5.893    -3.085    -1.481
H    3.978    -1.394    0.124
H    5.143    -0.692    -0.994
H    3.132    -2.82    -1.766
H    2.898    -1.093    -2.035
H    5.352    -1.38    -3.127
H    4.709    -2.996    -3.424
H    2.634    -1.868    -4.396
H    3.551    -0.349    -4.346
H    4.349    -2.861    -5.716
H    5.357    -1.505    -5.543
H    3.929    -1.395    -6.458
