254

C    3.827    6.799    -8.966
O    4.039    8.093    -9.524
C    2.514    6.764    -8.216
O    2.2    5.432    -7.87
C    2.556    7.425    -6.842
O    1.281    7.991    -6.548
C    2.905    6.323    -5.88
C    2.127    5.16    -6.488
N    1.119    0.22    -5.434
C    0.314    1.273    -5.697
N    -0.97    0.921    -5.669
N    0.647    2.55    -5.967
C    2.003    2.681    -5.944
C    2.932    1.721    -5.696
C    2.465    0.418    -5.426
O    3.175    -0.557    -5.182
N    4.199    2.235    -5.761
C    4.008    3.519    -6.052
N    2.702    3.836    -6.173
H    4.838    8.257    -10.029
H    0.717    -0.688    -5.248
H    4.782    4.26    -6.187
H    1.093    5.198    -6.144
H    3.982    6.167    -5.903
H    -1.226    -0.035    -5.468
H    3.279    8.242    -6.822
H    -1.686    1.61    -5.849
H    1.756    7.286    -8.802
H    4.627    6.536    -8.272
H    2.588    6.614    -4.882
H    3.798    6.036    -9.746
P    1.119    9.011    -5.327
C    -1.18    7.805    -4.961
O    0.037    8.291    -4.396
C    -1.926    6.969    -3.946
O    -1.394    5.658    -3.924
C    -1.758    7.432    -2.502
O    -3.007    7.321    -1.82
C    -0.723    6.517    -1.909
C    -1.05    5.214    -2.631
N    0.083    4.265    -2.676
C    -0.187    2.92    -2.425
O    -1.351    2.587    -2.179
N    0.827    2.038    -2.46
C    2.064    2.411    -2.725
N    3.05    1.525    -2.755
C    2.371    3.799    -2.988
C    1.348    4.666    -2.95
O    0.533    10.281    -5.812
O    2.391    9.091    -4.573
H    3.386    4.096    -3.204
H    1.523    5.715    -3.138
H    -1.904    4.737    -2.15
H    0.264    6.9    -2.155
H    -1.464    8.482    -2.459
H    -2.993    7.003    -4.173
H    2.86    0.551    -2.574
H    -0.983    7.188    -5.838
H    3.993    1.827    -2.959
H    -0.857    6.489    -0.83
H    -1.824    8.63    -5.269
P    -3.116    7.734    -0.279
C    -3.567    5.598    1.173
O    -2.625    6.416    0.483
C    -2.845    4.598    2.049
O    -1.705    4.099    1.372
C    -2.251    5.19    3.323
O    -2.43    4.272    4.4
C    -0.794    5.407    3.019
C    -0.511    4.208    2.116
N    3.477    1.942    -0.225
C    2.509    1.461    0.587
N    2.654    0.154    0.791
N    1.487    2.116    1.169
C    1.534    3.432    0.824
C    2.438    4.057    0.024
C    3.467    3.268    -0.533
O    4.359    3.68    -1.273
N    2.156    5.391    -0.088
C    1.069    5.552    0.659
N    0.654    4.401    1.229
O    -4.534    7.965    0.077
O    -2.152    8.818    0.017
H    4.185    1.322    -0.59
H    0.541    6.48    0.819
H    -0.359    3.321    2.73
H    -0.682    6.358    2.504
H    3.418    -0.343    0.356
H    -2.762    6.113    3.601
H    2.0    -0.34    1.38
H    -3.546    3.819    2.351
H    -4.197    5.049    0.472
H    -0.238    5.416    3.954
H    -4.22    6.202    1.806
P    -3.884    4.049    5.028
C    -4.036    1.528    4.324
O    -3.892    2.486    5.371
C    -3.168    0.321    4.601
O    -1.85    0.582    4.163
C    -2.929    0.044    6.082
O    -2.746    -1.357    6.279
C    -1.688    0.817    6.436
C    -0.862    0.624    5.167
N    3.752    1.875    3.252
C    3.095    0.697    3.338
N    1.88    0.439    3.856
C    1.331    1.593    4.327
C    1.867    2.842    4.311
C    3.149    2.992    3.741
N    3.817    4.171    3.65
N    1.014    3.751    4.878
C    -0.039    3.022    5.232
N    0.103    1.716    4.922
O    -4.916    4.296    3.996
O    -3.998    4.797    6.3
H    3.682    -0.105    2.915
H    -0.932    3.389    5.716
H    -0.331    -0.326    5.223
H    -1.96    1.856    6.609
H    -3.791    0.34    6.68
H    -3.644    -0.565    4.18
H    -3.741    1.951    3.363
H    4.734    4.202    3.228
H    3.395    5.019    4.005
H    -1.252    0.387    7.336
H    -5.071    1.194    4.238
P    -2.523    -1.935    7.755
C    -0.72    -3.308    6.436
O    -1.099    -2.656    7.645
C    0.785    -3.445    6.368
O    1.362    -2.237    5.878
C    1.458    -3.676    7.718
O    2.269    -4.846    7.65
C    2.285    -2.444    7.965
C    2.591    -2.016    6.532
N    6.49    1.195    5.522
C    6.41    -0.154    5.551
N    5.349    -0.937    5.825
C    4.267    -0.156    6.095
C    4.194    1.201    6.104
C    5.371    1.917    5.8
N    5.46    3.272    5.77
N    2.931    1.624    6.422
C    2.252    0.495    6.601
N    3.012    -0.605    6.415
O    -3.539    -2.971    8.044
O    -2.396    -0.816    8.715
H    7.363    -0.603    5.312
H    1.208    0.417    6.866
H    3.367    -2.662    6.119
H    1.68    -1.717    8.502
H    0.717    -3.846    8.5
H    1.037    -4.296    5.733
H    -1.053    -2.741    5.565
H    6.339    3.715    5.544
H    4.647    3.836    5.972
H    3.155    -2.719    8.556
H    -1.16    -4.304    6.374
P    1.596    -6.272    7.379
C    2.429    -6.428    4.898
O    2.527    -6.899    6.24
C    1.065    -6.749    4.332
O    0.283    -5.578    4.224
C    1.079    -7.236    2.886
O    0.032    -8.185    2.695
C    0.868    -6.005    2.05
C    -0.127    -5.24    2.918
N    -2.823    -1.062    1.572
C    -3.164    -2.367    1.678
N    -2.402    -3.416    2.039
C    -1.138    -2.988    2.311
C    -0.651    -1.721    2.25
C    -1.543    -0.7    1.859
N    -1.211    0.613    1.75
N    0.672    -1.685    2.597
C    0.966    -2.953    2.866
N    -0.091    -3.777    2.708
O    0.242    -6.084    6.812
O    1.718    -7.118    8.588
H    -4.203    -2.516    1.423
H    1.93    -3.329    3.179
H    -1.135    -5.609    2.726
H    1.819    -5.486    1.943
H    2.018    -7.743    2.654
H    0.607    -7.537    4.933
H    3.183    -6.894    4.263
H    -1.905    1.287    1.464
H    -0.268    0.913    1.956
H    0.49    -6.303    1.075
H    2.575    -5.347    4.852
P    0.091    -9.201    1.46
C    -2.186    -7.985    1.0
O    -1.03    -8.63    0.471
C    -2.96    -7.313    -0.111
O    -2.503    -5.985    -0.271
C    -2.704    -7.893    -1.498
O    -3.895    -7.799    -2.279
C    -1.596    -7.06    -2.079
C    -1.963    -5.681    -1.539
N    -0.34    -0.806    -1.896
C    -1.554    -1.373    -2.075
N    -2.469    -0.465    -2.403
N    -1.911    -2.667    -1.965
C    -0.823    -3.412    -1.623
C    0.45    -2.987    -1.41
C    0.707    -1.607    -1.555
O    1.8    -1.065    -1.399
N    1.269    -4.033    -1.082
C    0.463    -5.088    -1.102
N    -0.808    -4.767    -1.423
O    -0.333    -10.548    1.902
O    1.401    -9.087    0.781
H    -0.225    0.19    -2.016
H    0.748    -6.109    -0.893
H    -2.721    -5.231    -2.179
H    -0.645    -7.424    -1.695
H    -2.207    0.507    -2.488
H    -2.445    -8.952    -1.437
H    -3.424    -0.746    -2.568
H    -4.028    -7.412    0.09
H    -1.909    -7.227    1.735
H    -1.623    -7.148    -3.163
H    -2.843    -8.703    1.493
P    -3.882    -8.247    -3.814
C    -4.853    -5.832    -4.127
O    -3.977    -6.855    -4.597
C    -5.153    -4.854    -5.24
O    -4.122    -3.908    -5.349
C    -5.086    -5.454    -6.642
O    -5.914    -4.684    -7.528
C    -3.636    -5.38    -7.035
C    -3.251    -4.024    -6.452
N    -1.838    -3.944    -6.028
C    -1.114    -2.812    -6.398
O    -1.682    -1.935    -7.058
N    0.175    -2.716    -6.024
C    0.765    -3.661    -5.32
N    2.038    -3.548    -4.961
C    0.037    -4.844    -4.923
C    -1.246    -4.925    -5.304
O    -5.104    -9.026    -4.116
O    -2.579    -8.868    -4.141
H    -5.931    -4.992    -8.437
H    0.529    -5.613    -4.347
H    -1.836    -5.789    -5.033
H    -3.456    -3.243    -7.185
H    -3.104    -6.207    -6.569
H    -5.471    -6.475    -6.649
H    -6.163    -4.461    -5.105
H    2.567    -2.73    -5.226
H    -4.404    -5.284    -3.298
H    2.477    -4.28    -4.421
H    -3.563    -5.45    -8.118
H    -5.796    -6.255    -3.776
