165

O    12.207    25.112    16.221
C    12.023    26.276    15.447
C    10.722    26.108    14.651
O    10.578    27.23    13.759
C    10.591    24.786    13.94
O    9.299    24.258    13.973
C    10.983    25.291    12.595
C    10.6    26.753    12.422
N    11.567    27.474    11.574
C    11.1    27.95    10.36
O    9.933    27.8    10.063
N    11.972    28.57    9.52
C    13.263    28.727    9.828
N    14.074    29.364    8.934
C    13.802    28.237    11.061
C    12.878    27.586    11.93
H    12.873    26.406    14.773
H    11.955    27.148    16.1
H    9.844    25.998    15.177
H    11.278    24.167    14.195
H    12.014    25.058    12.32
H    10.293    24.733    12.114
H    9.593    26.834    12.006
H    15.081    29.45    9.053
H    13.769    29.657    8.009
H    14.839    28.335    11.344
H    13.211    27.187    12.877
H    11.307    24.889    16.495
P    8.957    22.775    14.334
O    7.609    22.765    14.847
O    10.018    22.237    15.157
O    8.978    22.001    12.963
C    7.985    22.213    11.982
C    8.269    21.503    10.659
O    9.366    22.174    10.037
C    8.688    20.043    10.79
O    8.232    19.281    9.658
C    10.181    20.126    10.695
C    10.434    21.272    9.732
N    11.769    21.883    9.892
C    12.458    22.183    8.73
O    11.953    22.002    7.64
N    13.754    22.693    8.892
C    14.404    22.915    10.111
O    15.528    23.361    10.214
C    13.661    22.575    11.253
C    14.265    22.779    12.622
C    12.336    22.054    11.123
H    7.931    23.253    11.81
H    7.062    21.893    12.361
H    7.411    21.574    10.022
H    8.373    19.604    11.712
H    10.566    20.315    11.678
H    10.638    19.225    10.341
H    10.301    20.922    8.705
H    14.266    22.918    8.05
H    14.655    23.797    12.705
H    13.513    22.619    13.397
H    15.092    22.083    12.773
H    11.77    21.797    12.007
C    17.169    18.966    8.094
C    17.131    18.984    6.594
C    18.643    19.022    6.24
C    19.384    19.027    7.572
O    20.585    19.065    7.746
P    7.113    18.138    9.831
O    6.821    17.564    8.5
O    6.014    18.684    10.659
O    7.902    17.031    10.698
C    9.049    16.352    10.154
C    9.644    15.453    11.248
O    11.047    15.267    10.976
C    11.766    16.455    11.381
N    13.094    16.143    11.917
C    14.133    15.922    11.066
N    13.865    16.069    9.717
C    14.913    15.839    8.916
N    14.771    15.95    7.565
N    16.187    15.488    9.338
C    16.512    15.337    10.683
O    17.609    15.036    11.107
C    15.432    15.57    11.547
N    15.612    15.441    12.892
C    16.127    14.304    13.429
O    15.931    13.217    12.925
C    10.908    17.092    12.481
C    9.664    16.212    12.575
O    9.819    15.273    13.657
C    15.315    16.614    13.73
C    16.311    17.75    13.46
O    16.873    18.176    14.699
C    15.482    18.894    12.879
C    15.424    18.896    11.391
O    13.997    17.133    13.441
C    14.006    18.556    13.199
O    13.204    18.849    12.007
C    14.079    18.871    10.972
C    13.791    18.876    9.57
C    14.819    18.904    8.642
O    14.542    18.905    7.313
C    13.133    18.816    7.045
C    16.138    18.932    9.069
C    16.479    18.928    10.417
O    17.766    18.953    10.893
C    18.781    18.986    9.992
O    19.948    19.011    10.326
C    18.46    18.993    8.625
H    16.615    19.871    6.219
H    16.655    18.086    6.196
H    18.879    19.925    5.673
H    18.919    18.142    5.656
H    9.78    17.105    9.852
H    8.756    15.768    9.279
H    9.113    14.501    11.321
H    11.844    17.135    10.529
H    13.011    15.58    12.762
H    13.843    16.032    7.156
H    15.34    15.378    6.944
H    16.914    15.339    8.653
H    17.071    14.482    13.947
H    10.636    18.11    12.191
H    11.439    17.124    13.434
H    8.76    16.802    12.734
H    15.358    16.328    14.782
H    17.102    17.442    12.774
H    17.412    17.445    15.053
H    15.78    19.868    13.272
H    13.636    19.089    14.077
H    12.759    18.857    9.231
H    12.737    17.891    7.469
H    12.622    19.673    7.49
H    12.97    18.819    5.966
P    8.502    14.665    14.348
O    7.491    15.586    14.144
O    8.817    14.26    15.662
O    8.151    13.396    13.482
C    8.364    12.096    14.009
C    7.851    11.185    12.917
O    8.759    11.281    11.8
C    7.858    9.726    13.356
O    6.543    9.192    13.214
C    8.785    9.064    12.347
C    8.815    10.0    11.15
N    10.041    9.766    10.363
C    10.754    8.594    10.248
N    11.795    8.652    9.461
C    11.77    9.955    8.989
C    12.578    10.726    8.09
N    13.686    10.227    7.469
N    12.222    11.992    7.847
C    11.148    12.505    8.434
N    10.305    11.945    9.286
C    10.665    10.666    9.532
H    7.792    11.974    14.931
H    9.427    11.936    14.205
H    6.848    11.476    12.598
H    8.215    9.605    14.381
H    6.528    8.304    13.614
H    9.79    8.97    12.762
H    8.403    8.074    12.089
H    7.921    9.868    10.537
H    10.479    7.695    10.78
H    14.012    9.268    7.579
H    14.257    10.756    6.814
H    10.931    13.531    8.178
