63

C    7.938    -1.871    6.464
O    6.823    -2.711    6.11
C    7.452    -0.639    7.195
O    6.144    -0.28    6.693
C    7.285    -0.842    8.701
O    7.586    0.381    9.39
C    5.808    -1.15    8.845
C    5.19    -0.306    7.745
N    3.932    -0.849    7.204
C    2.869    0.009    7.039
O    2.921    1.195    7.319
N    1.736    -0.576    6.53
C    1.566    -1.902    6.178
O    0.487    -2.283    5.733
C    2.722    -2.745    6.378
C    3.832    -2.184    6.874
C    2.633    -4.196    6.026
H    6.384    -2.961    6.926
H    0.938    0.029    6.398
H    4.705    -2.818    7.025
H    5.026    0.704    8.121
H    5.61    -2.209    8.687
H    7.894    -1.674    9.053
H    8.147    0.184    7.027
H    8.463    -1.568    5.558
H    2.823    -4.798    6.915
H    3.375    -4.431    5.263
H    1.636    -4.417    5.644
H    5.438    -0.852    9.825
H    8.618    -2.428    7.109
P    8.546    0.352    10.679
C    7.627    2.704    11.451
O    7.812    1.303    11.726
C    6.387    3.214    12.15
O    5.272    2.358    11.811
C    6.487    3.192    13.675
O    5.773    4.296    14.24
C    5.817    1.883    14.043
C    4.738    1.759    12.983
N    0.973    -1.43    11.528
C    0.991    -0.115    11.777
N    2.002    0.654    12.174
C    3.122    -0.074    12.319
C    3.261    -1.433    12.101
C    2.116    -2.133    11.683
N    2.098    -3.444    11.435
N    4.577    -1.829    12.299
C    5.194    -0.72    12.626
N    4.374    0.381    12.658
O    9.828    0.994    10.293
O    8.551    -1.028    11.226
H    4.846    4.178    14.022
H    0.044    0.398    11.635
H    6.258    -0.676    12.851
H    3.855    2.308    13.31
H    6.52    1.052    13.988
H    7.527    3.203    13.999
H    6.177    4.233    11.826
H    7.52    2.849    10.376
H    1.243    -3.89    11.135
H    2.94    -3.991    11.547
H    5.384    1.93    15.042
H    8.495    3.259    11.807
