516

C    0.008    0.372    1.996
C    -0.008    -0.372    7.166
C    0.622    1.35    1.003
O    0.454    2.674    1.479
C    -0.622    -1.35    6.173
O    -0.454    -2.674    6.649
C    -0.033    1.177    -0.352
O    0.639    1.999    -1.313
C    0.033    -1.177    4.818
O    -0.639    -1.999    3.857
C    0.023    -0.268    -0.796
O    -0.751    -0.476    -1.996
C    -0.023    0.268    4.374
O    0.751    0.476    3.174
O    -0.751    -0.476    8.344
C    -0.54    -1.168    0.279
O    0.162    -0.961    1.52
C    0.54    1.168    5.449
O    -0.162    0.961    6.69
C    -0.408    -2.64    -0.031
O    -0.557    -3.462    1.106
C    0.408    2.64    5.139
O    0.557    3.462    6.276
H    -1.003    0.595    2.167
H    1.003    -0.595    7.337
H    1.649    1.147    0.914
H    -1.649    -1.147    6.084
H    -1.037    1.477    -0.287
H    1.037    -1.477    4.883
H    1.022    -0.534    -0.98
H    -1.018    0.537    4.177
H    -1.554    -0.939    0.419
H    1.554    0.939    5.588
H    -1.12    -2.91    -0.755
H    0.548    -2.806    -0.432
H    1.12    2.91    4.415
H    -0.548    2.806    4.738
C    4.806    9.028    -8.344
C    4.806    9.028    1.996
C    4.806    9.028    12.336
C    4.791    8.283    -3.174
C    4.791    8.283    7.166
C    4.791    8.283    17.506
C    5.421    10.006    -9.337
C    5.421    10.006    1.003
C    5.421    10.006    11.343
O    5.253    11.33    -8.861
O    5.253    11.33    1.479
O    5.253    11.33    11.819
C    4.176    7.305    -4.167
C    4.176    7.305    6.173
C    4.176    7.305    16.513
O    4.344    5.981    -3.691
O    4.344    5.981    6.649
O    4.344    5.981    16.989
C    4.766    9.833    -10.692
C    4.766    9.833    -0.352
C    4.766    9.833    9.988
O    5.438    10.655    -11.653
O    5.438    10.655    -1.313
O    5.438    10.655    9.027
C    4.831    7.478    -5.522
C    4.831    7.478    4.818
C    4.831    7.478    15.158
O    4.159    6.656    -6.483
O    4.159    6.656    3.857
O    4.159    6.656    14.197
C    4.821    8.387    -11.136
C    4.821    8.387    -0.796
C    4.821    8.387    9.544
O    4.048    8.179    -12.336
C    4.776    8.924    -5.966
C    4.776    8.924    4.374
C    4.776    8.924    14.714
O    5.549    9.131    -7.166
O    5.549    9.131    3.174
O    5.549    9.131    13.514
O    4.048    8.179    -1.996
O    4.048    8.179    8.344
O    4.048    8.179    18.684
C    4.259    7.487    -10.061
C    4.259    7.487    0.279
C    4.259    7.487    10.619
O    4.96    7.695    -8.82
O    4.96    7.695    1.52
O    4.96    7.695    11.86
C    5.338    9.824    -4.891
C    5.338    9.824    5.449
C    5.338    9.824    15.789
O    4.637    9.616    -3.65
O    4.637    9.616    6.69
O    4.637    9.616    17.03
C    4.39    6.016    -10.371
C    4.39    6.016    -0.031
C    4.39    6.016    10.309
O    4.241    5.193    -9.234
O    4.241    5.193    1.106
O    4.241    5.193    11.446
C    5.207    11.295    -5.201
C    5.207    11.295    5.139
C    5.207    11.295    15.479
O    5.356    12.118    -4.064
O    5.356    12.118    6.276
O    5.356    12.118    16.616
H    3.796    9.251    -8.173
H    3.796    9.251    2.167
H    3.796    9.251    12.507
H    5.801    8.06    -3.003
H    5.801    8.06    7.337
H    5.801    8.06    17.677
H    6.447    9.802    -9.426
H    6.447    9.802    0.914
H    6.447    9.802    11.254
H    3.15    7.509    -4.256
H    3.15    7.509    6.084
H    3.15    7.509    16.424
H    3.761    10.133    -10.627
H    3.761    10.133    -0.287
H    3.761    10.133    10.052
H    5.836    7.178    -5.457
H    5.836    7.178    4.883
H    5.836    7.178    15.222
H    5.82    8.121    -11.32
H    5.82    8.121    -0.98
H    5.82    8.121    9.36
H    3.78    9.192    -6.163
H    3.78    9.192    4.177
H    3.78    9.192    14.517
H    3.244    7.716    -9.921
H    3.244    7.716    0.419
H    3.244    7.716    10.759
H    6.353    9.594    -4.752
H    6.353    9.594    5.588
H    6.353    9.594    15.928
H    3.679    5.745    -11.095
H    3.679    5.745    -0.755
H    3.679    5.745    9.585
H    5.346    5.849    -10.772
H    5.346    5.849    -0.432
H    5.346    5.849    9.908
H    5.918    11.565    -5.925
H    5.918    11.565    4.415
H    5.918    11.565    14.755
H    4.251    11.462    -5.602
H    4.251    11.462    4.738
H    4.251    11.462    15.078
C    -0.008    -0.372    -3.174
C    -0.008    -0.372    17.506
C    0.008    0.372    12.336
C    0.008    0.372    22.676
C    -0.622    -1.35    -4.167
C    -0.622    -1.35    16.513
O    -0.454    -2.674    -3.691
O    -0.454    -2.674    16.989
C    0.622    1.35    11.343
C    0.622    1.35    21.683
O    0.454    2.674    11.819
O    0.454    2.674    22.159
C    0.033    -1.177    -5.522
C    0.033    -1.177    15.158
O    -0.639    -1.999    -6.483
O    -0.639    -1.999    14.197
C    -0.033    1.177    9.988
C    -0.033    1.177    20.328
O    0.639    1.999    9.027
O    0.639    1.999    19.367
C    -0.023    0.268    -5.966
C    -0.023    0.268    14.714
O    0.751    0.476    -7.166
C    0.023    -0.268    9.544
C    0.023    -0.268    19.884
O    -0.751    -0.476    18.684
O    0.751    0.476    13.514
O    0.751    0.476    23.854
C    0.54    1.168    -4.891
C    0.54    1.168    15.789
O    -0.162    0.961    -3.65
O    -0.162    0.961    17.03
C    -0.54    -1.168    10.619
C    -0.54    -1.168    20.959
O    0.162    -0.961    11.86
O    0.162    -0.961    22.2
C    0.408    2.64    -5.201
C    0.408    2.64    15.479
O    0.557    3.462    -4.064
O    0.557    3.462    16.616
C    -0.408    -2.64    10.309
C    -0.408    -2.64    20.649
O    -0.557    -3.462    11.446
O    -0.557    -3.462    21.786
H    1.003    -0.595    -3.003
H    1.003    -0.595    17.677
H    -1.003    0.595    12.507
H    -1.003    0.595    22.847
H    -1.649    -1.147    -4.256
H    -1.649    -1.147    16.424
H    1.649    1.147    11.254
H    1.649    1.147    21.594
H    1.037    -1.477    -5.457
H    1.037    -1.477    15.222
H    -1.037    1.477    10.052
H    -1.037    1.477    20.392
H    -1.022    0.534    -6.15
H    -1.022    0.534    14.53
H    1.018    -0.537    9.347
H    1.018    -0.537    19.687
H    1.554    0.939    -4.751
H    1.554    0.939    15.929
H    -1.554    -0.939    10.758
H    -1.554    -0.939    21.098
H    1.12    2.91    -5.925
H    1.12    2.91    14.755
H    -0.548    2.806    -5.602
H    -0.548    2.806    15.078
H    -1.12    -2.91    9.585
H    -1.12    -2.91    19.925
H    0.548    -2.806    9.908
H    0.548    -2.806    20.248
C    4.412    -0.355    6.349
C    4.412    -0.355    -3.991
C    4.412    -0.355    16.689
C    4.608    0.355    1.179
C    4.608    0.355    -9.161
C    4.608    0.355    11.519
C    4.687    -1.471    7.341
C    4.687    -1.471    -2.999
C    4.687    -1.471    17.681
O    4.114    -2.683    6.876
O    4.114    -2.683    -3.464
O    4.114    -2.683    17.216
C    4.333    1.471    2.171
C    4.333    1.471    -8.169
C    4.333    1.471    12.511
O    4.906    2.683    1.706
O    4.906    2.683    -8.634
O    4.906    2.683    12.046
C    4.112    -1.108    8.717
C    4.112    -1.108    -1.623
C    4.112    -1.108    19.057
O    4.494    -2.095    9.668
O    4.494    -2.095    -0.672
O    4.494    -2.095    20.008
C    4.908    1.108    3.547
C    4.908    1.108    -6.793
C    4.908    1.108    13.887
O    4.526    2.095    4.498
O    4.526    2.095    -5.842
O    4.526    2.095    14.838
C    4.617    0.242    9.151
C    4.617    0.242    -1.189
C    4.617    0.242    19.491
O    3.951    0.684    10.34
O    3.951    0.684    20.68
C    4.403    -0.242    3.981
C    4.403    -0.242    -6.359
C    4.403    -0.242    14.321
O    5.069    -0.684    5.17
O    5.069    -0.684    -5.17
O    5.069    -0.684    15.51
O    3.951    0.684    0.0
O    3.951    0.684    -10.34
C    4.363    1.281    8.065
C    4.363    1.281    -2.275
C    4.363    1.281    18.405
O    4.967    0.857    6.835
O    4.967    0.857    -3.505
O    4.967    0.857    17.175
C    4.657    -1.281    2.895
C    4.657    -1.281    -7.445
C    4.657    -1.281    13.235
O    4.053    -0.857    1.665
O    4.053    -0.857    -8.675
O    4.053    -0.857    12.005
C    4.945    2.64    8.396
C    4.945    2.64    -1.944
C    4.945    2.64    18.736
O    4.96    3.497    7.259
O    4.96    3.497    -3.081
O    4.96    3.497    17.599
C    4.075    -2.64    3.226
C    4.075    -2.64    -7.114
C    4.075    -2.64    13.566
O    4.06    -3.497    2.089
O    4.06    -3.497    -8.251
O    4.06    -3.497    12.429
H    3.381    -0.251    6.182
H    3.381    -0.251    -4.158
H    3.381    -0.251    16.522
H    5.639    0.251    1.012
H    5.639    0.251    -9.328
H    5.639    0.251    11.352
H    5.725    -1.599    7.43
H    5.725    -1.599    -2.91
H    5.725    -1.599    17.77
H    3.296    1.599    2.26
H    3.296    1.599    -8.08
H    3.296    1.599    12.6
H    3.064    -1.079    8.655
H    3.064    -1.079    -1.685
H    3.064    -1.079    18.995
H    5.956    1.079    3.485
H    5.956    1.079    -6.855
H    5.956    1.079    13.825
H    5.647    0.185    9.347
H    5.647    0.185    -0.993
H    5.647    0.185    19.687
H    3.371    -0.182    4.166
H    3.371    -0.182    -6.174
H    3.371    -0.182    14.506
H    3.328    1.379    7.922
H    3.328    1.379    -2.418
H    3.328    1.379    18.261
H    5.692    -1.379    2.751
H    5.692    -1.379    -7.589
H    5.692    -1.379    13.092
H    4.383    3.085    9.162
H    4.383    3.085    -1.178
H    4.383    3.085    19.502
H    5.931    2.511    8.733
H    5.931    2.511    -1.607
H    5.931    2.511    19.073
H    4.637    -3.085    3.992
H    4.637    -3.085    -6.348
H    4.637    -3.085    14.332
H    3.089    -2.511    3.563
H    3.089    -2.511    -6.777
H    3.089    -2.511    13.903
C    0.386    9.01    -9.161
C    0.386    9.01    1.179
C    0.386    9.01    11.519
C    0.191    8.3    -14.331
C    0.191    8.3    -3.991
C    0.191    8.3    6.349
C    0.112    10.127    -8.169
C    0.112    10.127    2.171
C    0.112    10.127    12.511
O    0.685    11.339    -8.634
O    0.685    11.339    1.706
O    0.685    11.339    12.046
C    0.465    7.184    -13.339
C    0.465    7.184    -2.999
C    0.465    7.184    7.341
O    -0.108    5.972    -13.804
O    -0.108    5.972    -3.464
O    -0.108    5.972    6.876
C    0.686    9.763    -6.793
C    0.686    9.763    3.547
C    0.686    9.763    13.887
O    0.304    10.75    -5.842
O    0.304    10.75    4.498
O    0.304    10.75    14.838
C    -0.109    7.548    -11.963
C    -0.109    7.548    -1.623
C    -0.109    7.548    8.717
O    0.273    6.561    -11.012
O    0.273    6.561    -0.672
O    0.273    6.561    9.668
C    0.181    8.413    -6.359
C    0.181    8.413    3.981
C    0.181    8.413    14.321
O    0.848    7.972    -5.17
O    0.848    7.972    5.17
O    0.848    7.972    15.51
C    0.396    8.898    -11.529
C    0.396    8.898    -1.189
C    0.396    8.898    9.151
O    -0.271    9.339    -10.34
O    -0.271    9.339    0.0
O    -0.271    9.339    10.34
O    0.848    7.972    -15.51
C    0.435    7.374    -7.445
C    0.435    7.374    2.895
C    0.435    7.374    13.235
O    -0.169    7.799    -8.675
O    -0.169    7.799    1.665
O    -0.169    7.799    12.005
C    0.142    9.936    -12.615
C    0.142    9.936    -2.275
C    0.142    9.936    8.065
O    0.746    9.512    -13.845
O    0.746    9.512    -3.505
O    0.746    9.512    6.835
C    -0.147    6.016    -7.114
C    -0.147    6.016    3.226
C    -0.147    6.016    13.566
O    -0.162    5.159    -8.251
O    -0.162    5.159    2.089
O    -0.162    5.159    12.429
C    0.724    11.295    -12.284
C    0.724    11.295    -1.944
C    0.724    11.295    8.396
O    0.739    12.152    -13.421
O    0.739    12.152    -3.081
O    0.739    12.152    7.259
H    1.417    8.906    -9.328
H    1.417    8.906    1.012
H    1.417    8.906    11.352
H    -0.84    8.404    -14.498
H    -0.84    8.404    -4.158
H    -0.84    8.404    6.182
H    -0.926    10.254    -8.08
H    -0.926    10.254    2.26
H    -0.926    10.254    12.6
H    1.503    7.057    -13.25
H    1.503    7.057    -2.91
H    1.503    7.057    7.43
H    1.734    9.734    -6.855
H    1.734    9.734    3.485
H    1.734    9.734    13.825
H    -1.157    7.577    -12.025
H    -1.157    7.577    -1.685
H    -1.157    7.577    8.655
H    -0.849    8.47    -6.163
H    -0.849    8.47    4.177
H    -0.849    8.47    14.517
H    1.428    8.837    -11.344
H    1.428    8.837    -1.004
H    1.428    8.837    9.336
H    1.471    7.277    -7.589
H    1.471    7.277    2.751
H    1.471    7.277    13.092
H    -0.894    10.034    -12.759
H    -0.894    10.034    -2.418
H    -0.894    10.034    7.922
H    0.416    5.571    -6.348
H    0.416    5.571    3.992
H    0.416    5.571    14.332
H    -1.132    6.144    -6.777
H    -1.132    6.144    3.563
H    -1.132    6.144    13.903
H    0.161    11.74    -11.518
H    0.161    11.74    -1.178
H    0.161    11.74    9.162
H    1.709    11.166    -11.947
H    1.709    11.166    -1.607
H    1.709    11.166    8.733
H    0.8409    3.2909    0.8534
H    -0.8409    -3.2909    6.0234
H    0.2253    1.8907    -2.1725
H    -0.2253    -1.8907    2.9975
H    -0.4639    -4.3826    0.8503
H    0.4639    4.3826    6.0203
H    5.6403    11.9469    -9.4863
H    5.6403    11.9469    0.8537
H    5.6403    11.9469    11.1937
H    3.9567    5.3641    -4.3163
H    3.9567    5.3641    6.0237
H    3.9567    5.3641    16.3637
H    5.0243    10.5467    -12.5125
H    5.0243    10.5467    -2.1725
H    5.0243    10.5467    8.1675
H    4.5727    6.7643    -7.3425
H    4.5727    6.7643    2.9975
H    4.5727    6.7643    13.3375
H    4.1001    7.256    -12.5948
H    4.4033    8.7819    19.3412
H    4.3336    4.2725    -9.4903
H    4.3336    4.2725    0.8497
H    4.3336    4.2725    11.1897
H    5.2634    13.0385    -4.3203
H    5.2634    13.0385    6.0197
H    5.2634    13.0385    16.3597
H    -0.8409    -3.2909    -4.3166
H    -0.8409    -3.2909    16.3634
H    0.8409    3.2909    11.1934
H    0.8409    3.2909    21.5334
H    -0.2253    -1.8907    -7.3425
H    -0.2253    -1.8907    13.3375
H    0.2253    1.8907    8.1675
H    0.2253    1.8907    18.5075
H    0.6985    1.3988    -7.4253
H    0.396    -0.1271    24.5111
H    0.4639    4.3826    -4.3197
H    0.4639    4.3826    16.3603
H    -0.4639    -4.3826    11.1903
H    -0.4639    -4.3826    21.5303
H    4.2913    -3.3842    7.5073
H    4.2913    -3.3842    -2.8327
H    4.2913    -3.3842    17.8473
H    4.7287    3.3842    2.3373
H    4.7287    3.3842    -8.0027
H    4.7287    3.3842    12.6773
H    4.134    -1.8673    10.5283
H    4.134    -1.8673    0.1883
H    4.134    -1.8673    20.8683
H    4.886    1.8673    5.3583
H    4.886    1.8673    -4.9817
H    4.886    1.8673    15.6983
H    4.2898    1.545    20.9358
H    4.103    -0.0023    -10.9938
H    5.3337    4.3469    7.5032
H    5.3337    4.3469    -2.8368
H    5.3337    4.3469    17.8432
H    3.6863    -4.3469    2.3332
H    3.6863    -4.3469    -8.0068
H    3.6863    -4.3469    12.6732
H    0.508    12.0401    -8.0025
H    0.508    12.0401    2.3375
H    0.508    12.0401    12.6775
H    0.0688    5.2709    -13.1725
H    0.0688    5.2709    -2.8325
H    0.0688    5.2709    7.5075
H    0.6633    10.5219    -4.9815
H    0.6633    10.5219    5.3585
H    0.6633    10.5219    15.6985
H    -0.0863    6.7891    -10.1515
H    -0.0863    6.7891    0.1885
H    -0.0863    6.7891    10.5285
H    0.5098    7.1109    15.7665
H    0.6961    8.6589    -16.1633
H    -0.5359    4.3092    -8.0068
H    -0.5359    4.3092    2.3332
H    -0.5359    4.3092    12.6732
H    1.1127    13.0019    -13.1768
H    1.1127    13.0019    -2.8368
H    1.1127    13.0019    7.5032
