168

N    -14.2836571726    -3.2234721021    1.9116569311
H    -14.1717195964    -6.0108328116    -0.917302254
C    -14.0283924779    -3.1742998873    -0.2707704275
H    -13.9575799961    -2.9827974638    -1.1991031746
C    -13.9069071945    -4.4408967762    1.52824665
H    -13.8892601578    -2.263758446    3.6237182959
H    -13.7820925593    -5.1936558842    2.1019933244
N    -13.7452920003    -4.4402633448    0.2085326813
C    -13.3887575942    -5.5964247282    -0.6169829871
H    -12.9105268428    -5.2960804819    -1.432595366
H    -12.8535054323    -6.1987071736    -0.1121567664
H    -15.3649030472    -2.3047335751    3.293608646
H    -14.6771613805    -3.5630842899    3.8169532129
H    -14.5913352582    -1.5218394527    0.8379149089
C    -14.5786588545    -2.8115003657    3.2873285112
C    -14.3637995751    -2.4138259108    0.7947591108
H    -15.4204887911    -8.162651805    0.7412974504
H    -15.3634673805    -9.0652784968    2.06173605
C    -14.8852366291    -8.7649342505    1.2461236711
N    -14.528702223    -9.9210956338    0.4206080027
H    -14.491901664    -9.1677030945    -1.4728526404
H    -14.3847340655    -12.0976005326    -2.9945776119
C    -14.3670870288    -9.9204622024    -0.899105966
H    -14.3164142273    -11.3785615149    1.8282438586
C    -14.2456017454    -11.1870590913    0.8999111115
H    -14.1022746269    -8.350526167    1.546442938
N    -13.9903370507    -11.1378868766    -1.2825162472
C    -13.9101946483    -11.9475330678    -0.1656184268
C    -13.6953353689    -11.5498586129    -2.6581878272
H    -13.6826589651    -12.8395195259    -0.2087742249
H    -13.5968328429    -10.7982746887    -3.1878125289
H    -12.9090911761    -12.0566254035    -2.664467962
N    -12.8544122299    -8.3177368179    -4.0257274379
C    -12.2568140402    -8.1752263187    -3.0437720012
N    -11.7120280931    -8.0820353632    -1.86101328
C    -10.4716199071    -7.6803786019    -1.7288083909
N    -9.3908360314    -7.3404008588    -1.4871842301
N    -18.8831581919    -7.0209581198    2.1163249141
C    -17.8023743163    -6.6809803768    2.3579490749
N    -16.5619661302    -6.2793236154    2.490153964
C    -16.0171801832    -6.1861326599    3.6729126852
N    -15.4195819935    -6.0436221607    4.6548681218
N    -11.889918191900001    -7.0209581198    2.1163249141
C    -10.8091343163    -6.6809803768    2.3579490749
N    -9.568726130199998    -6.2793236154    2.490153964
C    -9.0239401832    -6.1861326599    3.6729126852
N    -8.4263419935    -6.0436221607    4.6548681218
N    -19.8476522299    -8.3177368179    -4.0257274379
C    -19.2500540402    -8.1752263187    -3.0437720012
N    -18.705268093100003    -8.0820353632    -1.86101328
C    -17.4648599071    -7.6803786019    -1.7288083909
N    -16.3840760314    -7.3404008588    -1.4871842301
H    -18.673053739653994    -0.5446003167296585    0.7412974504
H    -18.616032329053994    -1.4472270085296586    2.06173605
C    -18.137801577653992    -1.1468827622296587    1.2461236711
N    -17.781267171553992    -2.3030441455296593    0.4206080027
H    -17.744466612553992    -1.5496516062296593    -1.4728526404
H    -17.637299014053994    -4.479549044329659    -2.9945776119
C    -17.619651977353993    -2.3024107141296586    -0.899105966
H    -17.568979175853993    -3.7605100266296585    1.8282438586
C    -17.498166693953994    -3.569007603029659    0.8999111115
H    -17.354839575453994    -0.732474678729659    1.546442938
N    -17.242901999253995    -3.5198353883296587    -1.2825162472
C    -17.16275959685399    -4.329481579529659    -0.1656184268
C    -16.947900317453993    -3.9318071246296586    -2.6581878272
H    -16.935223913653992    -5.221468037629659    -0.2087742249
H    -16.849397791453992    -3.1802232004296584    -3.1878125289
H    -16.161656124653994    -4.438573915229659    -2.664467962
C    -11.326093905946006    -10.429551853970342    3.2873285112
C    -11.111234626546006    -10.031877399070341    0.7947591108
N    -11.031092224046006    -10.841523590370342    1.9116569311
H    -10.919154647846005    -13.628884299870341    -0.917302254
C    -10.775827529346007    -10.792351375570341    -0.2707704275
H    -10.705015047546006    -10.60084895207034    -1.1991031746
C    -10.654342245946006    -12.058948264470342    1.52824665
H    -10.636695209246007    -9.881809934270342    3.6237182959
H    -10.529527610746007    -12.811707372470341    2.1019933244
N    -10.492727051746005    -12.058314833070341    0.2085326813
C    -10.136192645646005    -13.214476216470342    -0.6169829871
H    -9.657961894246005    -12.914131970170342    -1.432595366
H    -9.600940483746006    -13.816758661870342    -0.1121567664
H    -12.112338098646006    -9.922785063370341    3.293608646
H    -11.424596431946005    -11.18113577817034    3.8169532129
H    -11.338770309646007    -9.139890940970341    0.8379149089
H    -19.105578098646006    -9.922785063370341    3.293608646
H    -18.417836431946007    -11.18113577817034    3.8169532129
H    -18.33201030964601    -9.139890940970341    0.8379149089
C    -18.319333905946007    -10.429551853970342    3.2873285112
C    -18.104474626546008    -10.031877399070341    0.7947591108
N    -18.024332224046006    -10.841523590370342    1.9116569311
H    -17.912394647846007    -13.628884299870341    -0.917302254
C    -17.769067529346007    -10.792351375570341    -0.2707704275
H    -17.698255047546006    -10.60084895207034    -1.1991031746
C    -17.64758224594601    -12.058948264470342    1.52824665
H    -17.629935209246007    -9.881809934270342    3.6237182959
H    -17.52276761074601    -12.811707372470341    2.1019933244
N    -17.485967051746005    -12.058314833070341    0.2085326813
C    -17.129432645646006    -13.214476216470342    -0.6169829871
H    -16.651201894246007    -12.914131970170342    -1.432595366
H    -16.59418048374601    -13.816758661870342    -0.1121567664
C    -10.626411977353994    -2.3024107141296586    -0.899105966
H    -10.575739175853993    -3.7605100266296585    1.8282438586
C    -10.504926693953994    -3.569007603029659    0.8999111115
H    -10.361599575453994    -0.732474678729659    1.546442938
N    -10.249661999253995    -3.5198353883296587    -1.2825162472
C    -10.169519596853993    -4.329481579529659    -0.1656184268
C    -9.954660317453994    -3.9318071246296586    -2.6581878272
H    -9.941983913653994    -5.221468037629659    -0.2087742249
H    -9.856157791453994    -3.1802232004296584    -3.1878125289
H    -9.168416124653994    -4.438573915229659    -2.664467962
H    -11.679813739653994    -0.5446003167296585    0.7412974504
H    -11.622792329053993    -1.4472270085296586    2.06173605
C    -11.144561577653993    -1.1468827622296587    1.2461236711
N    -10.788027171553994    -2.3030441455296593    0.4206080027
H    -10.751226612553994    -1.5496516062296593    -1.4728526404
H    -10.644059014053994    -4.479549044329659    -2.9945776119
N    -15.18914324418052    -11.0344661010548    4.025727437804506
C    -14.591545054480523    -10.8919556018548    5.007682874504506
N    -14.046759107380524    -10.7987646463548    6.190441595704506
C    -12.80635092138052    -10.397107885054801    6.322646484804506
N    -11.72556704568052    -10.0571301419548    6.5642706456045055
N    -16.54842717761948    -4.3042288366451995    -5.935129961604506
C    -15.467643302019479    -3.9642510936451996    -5.693505800804505
N    -14.227235115919477    -3.5625943322451996    -5.561300911704506
C    -13.68244916891948    -3.4694033767451997    -4.378542190504506
N    -13.084850979219478    -3.3268928775451996    -3.396586753904506
N    -13.295862229065486    -11.92228032491554    -5.935129961604506
C    -12.215078353465485    -11.582302581915542    -5.693505800804505
N    -10.974670167365483    -11.18064582051554    -5.561300911704506
C    -10.429884220365485    -11.087454865015541    -4.378542190504506
N    -9.832286030665484    -10.944944365815541    -3.396586753904506
N    -17.299324055934516    -3.1807131580844583    6.190441595704506
C    -16.058915869934516    -2.7790563967844593    6.322646484804506
N    -14.978131994234515    -2.439078653684459    6.5642706456045055
N    -18.441708192734517    -3.4164146127844592    4.025727437804506
C    -17.844110003034515    -3.273904113584459    5.007682874504506
C    -15.984602891665485    -7.712822570815542    -4.764126364504506
C    -15.769743612265485    -7.315148115915541    -7.256695764904506
N    -15.689601209765485    -8.124794307215542    -6.139797944604506
H    -15.577663633565484    -10.912155016715541    -8.968757129704507
C    -15.434336515065485    -8.075622092415541    -8.322225303204506
H    -15.363524033265485    -7.884119668915541    -9.250558050304505
C    -15.312851231665485    -9.34221898131554    -6.523208225704506
H    -15.295204194965486    -7.165080651115542    -4.427736579804506
H    -15.188036596465485    -10.094978089315541    -5.9494615513045055
N    -15.151236037465484    -9.341585549915541    -7.8429221944045056
C    -14.794701631365484    -10.49774693331554    -8.668437862804506
H    -14.316470879965484    -10.19740268701554    -9.484050241704505
H    -14.259449469465485    -11.10002937871554    -8.163611642104506
H    -16.770847084365485    -7.206055780215541    -4.757846229704506
H    -16.083105417665482    -8.464406495015542    -4.234501662804506
H    -15.997279295365486    -6.423161657815541    -7.213539966804506
H    -14.014544753934516    -3.2613295998844585    8.792752326104505
H    -13.957523343334515    -4.163956291684459    10.113190925704506
C    -13.479292591934515    -3.8636120453844587    9.297578546804505
N    -13.122758185834515    -5.019773428684459    8.472062878404506
H    -13.085957626834515    -4.266380889384459    6.578602235304506
H    -12.978790028334515    -7.196278327484459    5.056877263804505
C    -12.961142991634516    -5.019139997284459    7.152348909704505
H    -12.910470190134514    -6.4772393097844585    9.879698734304506
C    -12.839657708234515    -6.285736886184459    8.951365987204506
H    -12.696330589734515    -3.449203961884459    9.597897813704506
N    -12.584393013534516    -6.236564671484459    6.768938628504506
C    -12.504250611134514    -7.046210862684459    7.885836448904506
C    -12.289391331734516    -6.648536407784459    5.393267048504506
H    -12.276714927934515    -7.938197320784459    7.842680650804506
H    -12.190888805734515    -5.8969524835844584    4.863642346804506
H    -11.503147138934516    -7.155303198384459    5.386986913704506
