48

O    -14.78372955    1.4842890802    0.64768
H    -14.78372955    1.4842890802    1.46832
H    -14.37446985    0.7754304863    0.37904
H    -15.60611985    1.4865239453    3.68368
O    -14.78372955    1.4842890802    3.40768
H    -14.37446985    2.1976174044    3.68368
H    -13.88962985    -0.0643370272    -3.30096
O    -13.48037015    -0.7731956211    -3.03232
H    -13.48037015    -0.7731956211    -2.21168
H    -13.88962985    -1.4865239453    0.00368
O    -13.48037015    -0.7731956211    -0.27232
H    -12.65797985    -0.7754304863    0.00368
O    -10.87372955    -0.7731956211    0.64768
H    -10.87372955    -0.7731956211    1.46832
H    -10.46446985    -0.0643370272    0.37904
H    -11.69611985    -0.7754304863    3.68368
O    -10.87372955    -0.7731956211    3.40768
H    -10.46446985    -1.4865239453    3.68368
O    -9.57040925    -3.0306125993    -3.03232
H    -9.57040925    -3.0306125993    -2.21168
H    -8.75188985    -3.0306125993    -3.30096
H    -9.98353985    -3.7417060583    0.00368
H    -9.98353985    -2.3195191402    0.00368
O    -9.57040925    -3.0306125993    -0.27232
H    -7.78220985    -3.0306125993    0.37904
O    -6.96369045    -3.0306125993    0.64768
H    -6.96369045    -3.0306125993    1.46832
O    -6.96369045    -3.0306125993    3.40768
H    -6.55055985    -3.7417060583    3.68368
H    -6.55055985    -2.3195191402    3.68368
H    -9.97962985    0.7754304863    -3.30096
O    -9.57037015    1.4842890802    -3.03232
H    -9.57037015    1.4842890802    -2.21168
H    -9.97962985    2.1976174044    0.00368
O    -9.57037015    1.4842890802    -0.27232
H    -8.74797985    1.4865239453    0.00368
H    -15.602209850000001    -3.0306125993    0.37904
O    -14.78369045    -3.0306125993    0.64768
H    -14.78369045    -3.0306125993    1.46832
H    -11.69611985    -0.7754304863000008    -3.6763200000000014
O    -10.87372955    -0.7731956211000007    -3.952320000000001
H    -10.46446985    -1.486523945300001    -3.6763200000000014
H    -11.69220985    3.741706058294311    0.37904
O    -10.873690449999998    3.741706058294311    0.64768
H    -10.873690449999998    3.741706058294311    1.46832
O    -6.96372955    1.4842890802    0.64768
H    -6.96372955    1.4842890802    1.46832
H    -6.55446985    0.7754304863    0.37904
