371
1wo6.pdb
N         -1.49300        4.78700        5.02900
C         -1.57200        3.33400        5.33100
C         -2.12300        2.55700        4.14000
O         -2.22800        3.09000        3.03500
C         -2.43700        3.09800        6.56100
H         -0.84300        5.21900        5.71700
H         -2.45200        5.18100        5.11900
H         -1.13300        4.89000        4.06000
H         -0.57600        2.97800        5.54900
H         -2.20200        3.83800        7.31300
H         -2.24300        2.11100        6.95300
H         -3.47900        3.18000        6.28900
N         -2.47400        1.29600        4.37100
C         -3.01400        0.44800        3.31600
C         -4.52800        0.60500        3.21000
O         -5.10800        0.41500        2.14200
C         -2.67100       -1.03700        3.55600
C         -3.26500       -1.52000        4.87000
C         -3.15700       -1.89300        2.39500
H         -2.36700        0.92700        5.27200
H         -2.56500        0.75200        2.38200
H         -1.59600       -1.13100        3.61700
H         -4.31300       -1.26600        4.90700
H         -2.75000       -1.04700        5.69400
H         -3.15100       -2.59200        4.94300
H         -4.23300       -1.82700        2.32400
H         -2.87000       -2.92000        2.56100
H         -2.71400       -1.53900        1.47600
N         -5.16300        0.95600        4.32500
C         -6.60900        1.14200        4.35500
C         -7.03900        2.20300        3.34700
O         -8.13900        2.14100        2.79600
C         -7.06500        1.54100        5.76000
C         -7.42700        0.36200        6.63600
C         -6.45700       -0.30500        7.37200
C         -8.74100       -0.08100        6.72600
C         -6.78500       -1.38300        8.17400
C         -9.07700       -1.15700        7.52700
C         -8.09600       -1.80300        8.24700
O         -8.42600       -2.87600        9.04400
H         -4.64600        1.09500        5.14600
H         -7.07000        0.20200        4.09000
H         -6.26900        2.08400        6.24900
H         -7.93300        2.17800        5.68200
H         -5.43200        0.02700        7.31200
H         -9.50700        0.42700        6.16100
H         -6.01600       -1.88900        8.73800
H        -10.10400       -1.48700        7.58400
H         -9.26900       -2.70900        9.47200
N         -6.16300        3.17400        3.10800
C         -6.45000        4.24600        2.16300
C         -5.82300        3.95600        0.80200
O         -5.56600        4.87000        0.01900
C         -5.93100        5.58100        2.70200
C         -6.63200        6.04000        3.96100
C         -8.01800        6.08100        4.03100
C         -5.90600        6.43300        5.07800
C         -8.66300        6.50000        5.18000
C         -6.54400        6.85200        6.23100
C         -7.92100        6.88500        6.27600
O         -8.55800        7.30200        7.42200
H         -5.30300        3.16700        3.57700
H         -7.52100        4.30800        2.04700
H         -4.87800        5.48600        2.92500
H         -6.06800        6.34300        1.94800
H         -8.59700        5.77900        3.17000
H         -4.82700        6.40600        5.04000
H         -9.74200        6.52400        5.21500
H         -5.96100        7.15400        7.09000
H         -9.27400        6.69600        7.63000
N         -5.58000        2.67800        0.52700
C         -4.98600        2.26600       -0.74000
C         -6.07100        1.94500       -1.76500
O         -6.91700        1.08100       -1.53700
C         -4.08100        1.05000       -0.52700
S         -3.36100        0.37400       -2.05900
H         -5.80800        1.99300        1.18900
H         -4.39100        3.08800       -1.10900
H         -3.26500        1.32800        0.12300
H         -4.65500        0.26400       -0.05800
N         -6.04400        2.65100       -2.89000
C         -7.02800        2.44500       -3.94700
C         -6.49500        1.51500       -5.03100
O         -6.80000        1.68300       -6.21300
C         -7.44500        3.78100       -4.59200
C         -6.22200        4.50000       -5.16500
C         -8.15600        4.66200       -3.57600
C         -6.56700        5.74200       -5.95700
H         -5.34700        3.33000       -3.01300
H         -7.90500        1.99800       -3.50200
H         -8.13600        3.56900       -5.39300
H         -5.57300        4.79400       -4.35400
H         -5.69000        3.82500       -5.81900
H         -8.05900        5.69800       -3.86600
H         -7.71100        4.51900       -2.60200
H         -9.20100        4.39500       -3.53700
H         -6.27800        6.61900       -5.39700
H         -7.63100        5.76700       -6.14200
H         -6.03900        5.72700       -6.89900
N         -5.70000        0.53000       -4.62600
C         -5.12900       -0.42700       -5.56700
C         -5.55800       -1.85200       -5.21800
O         -5.48700       -2.26200       -4.05900
C         -3.60100       -0.32200       -5.56900
C         -2.99500        0.27500       -6.84000
C         -1.75000        1.08400       -6.51000
C         -2.66900       -0.82400       -7.84100
H         -5.49400        0.44500       -3.67200
H         -5.49800       -0.18100       -6.55100
H         -3.30300        0.29100       -4.73000
H         -3.19000       -1.31100       -5.43300
H         -3.71500        0.94100       -7.29500
H         -0.97000        0.42100       -6.16800
H         -1.98100        1.79900       -5.73300
H         -1.41600        1.60800       -7.39400
H         -2.51100       -1.75400       -7.31500
H         -1.77400       -0.56100       -8.38600
H         -3.49200       -0.93700       -8.53200
N         -6.01000       -2.63200       -6.21800
C         -6.44800       -4.01500       -6.00200
C         -5.28000       -4.96000       -5.74500
O         -5.32300       -5.78200       -4.83000
C         -7.14800       -4.37200       -7.31300
C         -6.49500       -3.50900       -8.33600
C         -6.13000       -2.23000       -7.63300
H         -7.15100       -4.08200       -5.18400
H         -7.00200       -5.42100       -7.52800
H         -8.20300       -4.15800       -7.23200
H         -5.60800       -3.99600       -8.71400
H         -7.18600       -3.30900       -9.14200
H         -5.19100       -1.85000       -8.00700
H         -6.91200       -1.49500       -7.75900
N         -4.23500       -4.83600       -6.55800
C         -3.05300       -5.67800       -6.41800
C         -1.83200       -4.84200       -6.04800
O         -0.89000       -4.71800       -6.83000
C         -2.79100       -6.44400       -7.71700
C         -3.70300       -7.64400       -7.91200
C         -3.68400       -8.13000       -9.35100
C         -4.51600       -9.39100       -9.52400
N         -3.93300      -10.30600      -10.54400
H         -4.26000       -4.16000       -7.26700
H         -3.24300       -6.38700       -5.62600
H         -2.93300       -5.77200       -8.55200
H         -1.76800       -6.79200       -7.71600
H         -3.37200       -8.44300       -7.26700
H         -4.71300       -7.36200       -7.65000
H         -4.08300       -7.35700       -9.98900
H         -2.66300       -8.34200       -9.63500
H         -4.56600       -9.90700       -8.57800
H         -5.51200       -9.10900       -9.83300
H         -2.90200      -10.17900      -10.59100
H         -4.33900      -10.10400      -11.48000
H         -4.13900      -11.29500      -10.29600
N         -1.85800       -4.26800       -4.85000
C         -0.75400       -3.44100       -4.37500
C          0.22200       -4.26200       -3.54000
O          1.35900       -4.49900       -3.94800
C         -1.28700       -2.26700       -3.55200
S         -0.38100       -0.70800       -3.80700
H         -2.63600       -4.40200       -4.27200
H         -0.23300       -3.05500       -5.23900
H         -2.32000       -2.09300       -3.81400
H         -1.22600       -2.51600       -2.50200
N         -0.22900       -4.69200       -2.36600
C          0.60500       -5.48500       -1.47200
C          0.28800       -6.97100       -1.59600
O         -0.87100       -7.35800       -1.74700
C          0.42000       -5.02300       -0.03400
H         -1.14400       -4.47000       -2.09400
H          1.63700       -5.32300       -1.74600
H          0.49600       -5.87200        0.63000
H         -0.55100       -4.56600        0.07600
H          1.18700       -4.30300        0.21400
N          1.32500       -7.80000       -1.53100
C          1.15700       -9.24400       -1.63500
C          0.58500       -9.82200       -0.34500
O         -0.36200      -10.60900       -0.37200
C          2.48500       -9.90700       -1.97000
H          2.22500       -7.43100       -1.40800
H          0.46800       -9.44200       -2.44400
H          2.30300      -10.82500       -2.50800
H          3.01900      -10.12500       -1.05700
H          3.07500       -9.24100       -2.58200
N          1.16600       -9.42700        0.78200
C          0.71300       -9.90500        2.08300
C         -0.05300       -8.81900        2.83100
O         -0.06500       -8.78800        4.06100
C          1.89600      -10.38300        2.91100
H          1.91600       -8.79800        0.73900
H          0.05600      -10.74600        1.91900
H          2.45200       -9.53000        3.27000
H          2.53900      -10.99800        2.29800
H          1.54000      -10.96000        3.75100
N         -0.69400       -7.92900        2.07900
C         -1.46400       -6.84100        2.67000
C         -0.58600       -5.95900        3.55300
O         -1.06800       -5.34200        4.50200
C         -2.63100       -7.39600        3.47100
H         -0.64800       -8.00600        1.10300
H         -1.86300       -6.24100        1.86600
H         -2.92300       -8.35400        3.06500
H         -3.46500       -6.71200        3.41400
H         -2.33400       -7.51800        4.50200
N          0.70400       -5.90400        3.23500
C          1.64500       -5.09700        4.00000
C          1.57800       -3.63800        3.58000
O          1.34800       -3.32100        2.41400
C          3.06700       -5.63100        3.82800
C          3.44000       -5.82700        2.37100
O          2.60200       -5.69300        1.48000
N          4.70600       -6.14600        2.12300
H          1.03100       -6.41700        2.46800
H          1.36800       -5.16300        5.04300
H          3.76100       -4.93100        4.26500
H          3.15300       -6.58100        4.33400
H          5.31800       -6.23600        2.88200
H          4.97500       -6.27800        1.18900
N          1.76900       -2.75500        4.55000
C          1.72100       -1.32300        4.30900
C          3.12300       -0.73300        4.19300
O          3.40100        0.06900        3.30000
C          0.93500       -0.62100        5.43700
C          1.83200       -0.26600        6.61800
C          0.22500        0.61500        4.90900
H          1.93800       -3.07800        5.46000
H          1.19500       -1.16000        3.37700
H          0.18900       -1.31600        5.79000
H          1.23700        0.18500        7.39900
H          2.59300        0.43100        6.29900
H          2.30100       -1.16200        6.99700
H          0.95500        1.36700        4.64700
H         -0.43400        1.00300        5.67100
H         -0.35100        0.35300        4.03400
N          4.00100       -1.13900        5.10200
C          5.37900       -0.65600        5.11300
C          6.02000       -0.78300        3.73400
O          6.92900       -0.02700        3.39000
C          6.19400       -1.41700        6.14700
H          3.71300       -1.77900        5.78700
H          5.36400        0.38500        5.39700
H          7.24100       -1.18200        6.02400
H          6.04600       -2.47800        6.01400
H          5.87600       -1.13100        7.13900
N          5.53900       -1.74200        2.95000
C          6.06300       -1.96600        1.60900
C          5.17400       -1.32000        0.55100
O          5.62000       -1.04800       -0.56400
C          6.20500       -3.45700        1.34300
H          4.81400       -2.31300        3.28000
H          7.04700       -1.52200        1.55900
H          6.72400       -3.92300        2.16600
H          6.76500       -3.60900        0.43200
H          5.22400       -3.89900        1.24000
N          3.91200       -1.07900        0.90000
C          2.97000       -0.46800       -0.02900
C          3.15100        1.05200       -0.07400
O          3.25800        1.64200       -1.14500
C          1.52500       -0.84000        0.35600
C          0.61700        0.33600        0.56700
N         -0.22800        0.79300       -0.42100
C          0.48300        1.12700        1.65900
C         -0.84100        1.84100        0.08800
N         -0.44600        2.08300        1.34600
H          3.60800       -1.31900        1.80100
H          3.18000       -0.86700       -1.01000
H          1.09700       -1.44900       -0.42400
H          1.54600       -1.41000        1.27300
H          1.00900        1.02800        2.59700
H         -1.54400        2.45000       -0.45800
H         -0.88100        2.69100        1.98000
N          3.18200        1.68200        1.09600
C          3.34100        3.13400        1.18300
C          4.45300        3.64000        0.26300
O          4.42500        4.78800       -0.18300
C          3.63300        3.54900        2.62600
O          3.73000        4.95800        2.73300
C          4.91500        2.95900        3.17000
H          3.08800        1.16300        1.92100
H          2.40900        3.58400        0.87300
H          2.82100        3.21600        3.25600
H          4.45300        5.27300        2.18600
H          5.50400        3.73900        3.63000
H          5.47700        2.51200        2.36300
H          4.68000        2.20400        3.90600
N          5.42700        2.78100       -0.01900
C          6.54500        3.14400       -0.88600
C          6.05600        3.77200       -2.19100
O          6.64200        4.73400       -2.68900
C          7.39700        1.90900       -1.18900
O          8.63100        2.28200       -1.77700
C          6.72300        0.92300       -2.12200
H          5.39700        1.88000        0.36700
H          7.15100        3.86600       -0.36000
H          7.60300        1.39600       -0.26300
H          8.47000        2.66700       -2.64200
H          6.80700        1.27500       -3.13900
H          5.68000        0.83400       -1.85800
H          7.20100       -0.04000       -2.03300
N          4.98100        3.21600       -2.73900
C          4.41100        3.71700       -3.98900
C          3.16900        4.55400       -3.73300
O          2.91600        5.54200       -4.42300
C          4.05600        2.55500       -4.92400
C          3.51900        1.34900       -4.21500
N          4.18200        0.14100       -4.19500
C          2.38700        1.16600       -3.48600
C          3.48700       -0.73000       -3.48800
N          2.39600       -0.13500       -3.04600
H          4.56200        2.45000       -2.29300
H          5.15400        4.33500       -4.46600
H          3.30500        2.88600       -5.62600
H          4.94100        2.25700       -5.46600
H          5.03700       -0.05000       -4.63400
H          1.62100        1.90900       -3.27600
H          3.76500       -1.75700       -3.30200
H          1.79900       -0.50200       -2.36000
N          2.39000        4.14300       -2.74600
C          1.16600        4.83100       -2.39700
C          1.43600        5.97800       -1.42800
O          2.07100        5.79100       -0.39100
C          0.20100        3.83100       -1.77600
S         -0.88100        2.98700       -2.97800
H          2.63900        3.34500       -2.24000
H          0.73100        5.22800       -3.30200
H          0.77300        3.07200       -1.26400
H         -0.42100        4.34100       -1.06600
N          0.95000        7.16600       -1.77500
C          1.13900        8.34300       -0.93600
C         -0.09500        8.60500       -0.07800
O         -0.45300        9.75500        0.17800
C          1.44200        9.56800       -1.80000
C          0.39300        9.84400       -2.83900
C          0.47800        9.27200       -4.09800
C         -0.68000       10.67600       -2.55500
C         -0.48600        9.52400       -5.05600
C         -1.64600       10.93100       -3.50900
C         -1.54900       10.35500       -4.76100
H          0.45200        7.25200       -2.61400
H          1.98100        8.15600       -0.28600
H          1.51700       10.43900       -1.16600
H          2.38300        9.41700       -2.30900
H          1.30900        8.62200       -4.33000
H         -0.75600       11.12700       -1.57700
H         -0.40800        9.07200       -6.03300
H         -2.47800       11.58100       -3.27600
H         -2.30500       10.55300       -5.50800
N         -0.74100        7.53100        0.36300
C         -1.93500        7.64400        1.19200
C         -3.03800        8.40000        0.45800
O         -4.12500        8.57900        1.04700
C         -1.60400        8.35300        2.50600
C         -0.99200        7.43700        3.55400
C          0.04100        8.16600        4.39800
C         -0.57900        9.33300        5.15000
N          0.45100       10.29300        5.63300
O         -2.80500        8.80600       -0.70000
H         -0.40800        6.64100        0.12500
H         -2.28300        6.64500        1.41000
H         -0.90400        9.15100        2.30500
H         -2.51100        8.77400        2.91400
H         -1.77600        7.07000        4.20000
H         -0.51500        6.60500        3.05600
H          0.46200        7.47500        5.11100
H          0.82000        8.54100        3.75100
H         -1.25900        9.85000        4.49000
H         -1.12600        8.94700        5.99900
H          1.34700        9.79700        5.81200
H          0.13500       10.74500        6.51500
H          0.61300       11.03200        4.91800
Zn        -1.10500        0.81200       -2.23800
