375
1wo7.pdb
N         -2.32800        1.54500        4.29000
C         -2.72200        0.18100        4.72800
C         -3.10000       -0.69400        3.53700
O         -3.97200       -0.33700        2.74400
C         -3.90600        0.30100        5.69000
C         -3.50000        0.36200        7.13500
C         -2.97500        1.52400        7.67400
C         -3.64600       -0.74600        7.95500
C         -2.60100        1.58300        9.00300
C         -3.27400       -0.69500        9.28600
C         -2.75100        0.47100        9.80900
H         -2.33200        2.16100        5.12700
H         -3.02400        1.86500        3.58500
H         -1.37600        1.48300        3.87700
H         -1.88800       -0.26900        5.24500
H         -4.45500        1.20300        5.46200
H         -4.55500       -0.55200        5.56100
H         -2.85700        2.39400        7.04300
H         -4.05400       -1.65900        7.54600
H         -2.19200        2.49500        9.41000
H         -3.39200       -1.56500        9.91400
H         -2.45900        0.51400       10.84900
N         -2.43700       -1.83900        3.41600
C         -2.70300       -2.76500        2.32200
C         -4.16000       -3.22000        2.32900
O         -4.73800       -3.50200        1.28000
C         -1.78500       -4.00100        2.39800
C         -2.02500       -4.77200        3.68800
C         -1.99300       -4.89900        1.18600
H         -1.75400       -2.06800        4.08000
H         -2.50300       -2.25000        1.39300
H         -0.75900       -3.66300        2.39400
H         -1.38200       -5.63900        3.71400
H         -3.05700       -5.08600        3.73300
H         -1.80500       -4.13500        4.53300
H         -1.04000       -5.28700        0.85800
H         -2.44300       -4.32700        0.38800
H         -2.64300       -5.71900        1.45300
N         -4.74700       -3.28800        3.52000
C         -6.13500       -3.70800        3.66500
C         -7.08100       -2.68900        3.03500
O         -8.15400       -3.04400        2.54700
C         -6.48200       -3.89600        5.14300
O         -5.68200       -4.90800        5.73000
H         -4.23400       -3.05000        4.32100
H         -6.25100       -4.65300        3.15500
H         -6.31200       -2.96900        5.67100
H         -7.52000       -4.17700        5.23400
H         -6.24800       -5.59400        6.09200
N         -6.67600       -1.42400        3.04900
C         -7.48800       -0.35500        2.48000
C         -6.85900        0.18800        1.19900
O         -7.05900        1.35000        0.84500
C         -7.66400        0.77500        3.49500
O         -6.40600        1.23600        3.95500
C         -8.47600        0.37200        4.70600
H         -5.81000       -1.20300        3.45300
H         -8.45700       -0.76700        2.24200
H         -8.17300        1.59900        3.01500
H         -6.52800        2.03000        4.48200
H         -9.29100       -0.26500        4.39700
H         -8.87100        1.25500        5.18600
H         -7.84500       -0.16400        5.40000
N         -6.10100       -0.65800        0.51000
C         -5.44600       -0.25900       -0.73100
C         -6.47700        0.05600       -1.81000
O         -7.60900       -0.42400       -1.75900
C         -4.50400       -1.36300       -1.21300
S         -3.63800       -0.97800       -2.76900
H         -5.97900       -1.57200        0.84200
H         -4.87000        0.63100       -0.53000
H         -3.75400       -1.54200       -0.45700
H         -5.07200       -2.26800       -1.36900
H         -3.89800       -1.92800       -3.67100
N         -6.08000        0.86800       -2.78300
C         -6.97100        1.24800       -3.87400
C         -6.82600        0.29700       -5.05700
O         -7.81800       -0.15700       -5.62500
C         -6.68500        2.68400       -4.31900
C         -5.26900        2.89900       -4.80400
C         -4.25500        3.23900       -3.91800
C         -4.94800        2.76300       -6.14800
C         -2.96000        3.43700       -4.35800
C         -3.65500        2.95900       -6.59600
C         -2.66500        3.29600       -5.69800
O         -1.37700        3.49200       -6.13900
H         -5.16500        1.22100       -2.76900
H         -7.98400        1.19200       -3.50500
H         -7.35400        2.94300       -5.12500
H         -6.85700        3.35200       -3.48700
H         -4.48900        3.34800       -2.86900
H         -5.72500        2.50000       -6.85100
H         -2.18500        3.70000       -3.65300
H         -3.42400        2.84800       -7.64500
H         -0.76100        3.10900       -5.51100
N         -5.58300       -0.00100       -5.42400
C         -5.31300       -0.89900       -6.54200
C         -5.18000       -2.34300       -6.06200
O         -4.68300       -2.59700       -4.96500
C         -4.03800       -0.47100       -7.27100
C         -2.76100       -0.51500       -6.42800
C         -2.18500       -1.92100       -6.40700
C         -1.73700        0.47700       -6.96200
H         -4.83200        0.39300       -4.93300
H         -6.14600       -0.83400       -7.22500
H         -3.90300       -1.11800       -8.12600
H         -4.17300        0.54000       -7.62600
H         -3.00000       -0.23700       -5.41200
H         -1.10500       -1.86900       -6.40600
H         -2.51600       -2.45900       -7.28400
H         -2.52200       -2.43600       -5.52000
H         -1.28000        1.00100       -6.13600
H         -2.22600        1.18600       -7.61300
H         -0.97600       -0.05400       -7.51500
N         -5.62500       -3.31100       -6.88000
C         -5.55400       -4.73300       -6.53300
C         -4.14200       -5.29500       -6.67300
O         -3.21000       -4.57500       -7.02800
C         -6.49100       -5.38500       -7.54700
C         -6.43300       -4.49400       -8.73800
C         -6.23500       -3.09800       -8.20800
H         -5.91600       -4.91500       -5.53100
H         -6.14100       -6.38100       -7.77800
H         -7.49100       -5.43400       -7.13900
H         -5.60200       -4.77600       -9.36700
H         -7.36000       -4.55700       -9.28900
H         -5.56900       -2.54200       -8.85200
H         -7.18500       -2.59200       -8.11800
N         -3.99400       -6.58600       -6.39300
C         -2.69800       -7.24500       -6.48900
C         -1.68300       -6.59500       -5.55300
O         -0.50800       -6.46000       -5.89200
C         -2.18400       -7.19700       -7.92900
C         -3.20800       -7.65100       -8.95700
C         -3.02900       -9.11800       -9.31100
C         -3.28400       -9.36900      -10.79000
N         -3.86600      -10.71700      -11.03100
H         -4.77700       -7.10700       -6.11600
H         -2.82800       -8.27700       -6.19800
H         -1.89700       -6.18300       -8.16400
H         -1.31700       -7.83600       -8.01100
H         -4.19900       -7.50900       -8.55000
H         -3.09500       -7.05600       -9.85100
H         -2.01800       -9.41500       -9.07500
H         -3.72400       -9.70700       -8.73100
H         -3.96900       -8.61900      -11.15500
H         -2.34600       -9.28900      -11.32100
H         -3.50600      -11.10600      -11.92700
H         -4.90300      -10.65400      -11.08600
H         -3.61000      -11.36200      -10.25700
N         -2.14600       -6.19400       -4.37400
C         -1.27900       -5.55800       -3.38700
C         -1.22700       -6.37600       -2.10200
O         -0.16600       -6.53700       -1.49900
C         -1.76800       -4.14000       -3.08600
S         -0.42900       -2.92200       -2.87500
H         -3.09400       -6.32900       -4.16100
H         -0.28500       -5.50500       -3.80700
H         -2.39300       -3.80300       -3.89900
H         -2.34800       -4.15300       -2.17500
H          0.38500       -3.32000       -1.89300
N         -2.38000       -6.89100       -1.68600
C         -2.46400       -7.69300       -0.47100
C         -2.20500       -9.16600       -0.76700
O         -3.08600       -9.87700       -1.25200
C         -3.82700       -7.51600        0.18300
H         -3.19200       -6.72900       -2.21000
H         -1.71200       -7.33600        0.21600
H         -4.57300       -8.04000       -0.39500
H         -4.07400       -6.46600        0.22200
H         -3.80000       -7.91800        1.18400
N         -0.99100       -9.61900       -0.47200
C         -0.61500      -11.00800       -0.70800
C         -0.43500      -11.75800        0.60800
O         -0.68000      -12.96200        0.68600
C          0.65900      -11.07600       -1.53500
H         -0.33100       -9.00400       -0.08800
H         -1.40800      -11.47600       -1.27100
H          0.58100      -10.39900       -2.37200
H          0.79900      -12.08400       -1.89800
H          1.50300      -10.79600       -0.92200
N         -0.00500      -11.03900        1.64000
C          0.20800      -11.63700        2.95200
C         -0.07100      -10.63300        4.06500
O          0.54000      -10.69000        5.13200
C          1.62800      -12.17100        3.06300
H          0.17400      -10.08300        1.51600
H         -0.47300      -12.47000        3.05300
H          2.29900      -11.36100        3.30800
H          1.92200      -12.61100        2.12200
H          1.67100      -12.92100        3.84000
N         -0.99600       -9.71500        3.80900
C         -1.35700       -8.69900        4.79100
C         -0.14900       -7.84800        5.16900
O         -0.05000       -7.35800        6.29400
C         -1.95400       -9.35000        6.02800
H         -1.44900       -9.72200        2.94000
H         -2.10900       -8.06100        4.34900
H         -2.17100       -8.59000        6.76600
H         -1.25100      -10.05900        6.43800
H         -2.86800       -9.86100        5.76100
N          0.76900       -7.67600        4.22200
C          1.97000       -6.88500        4.45700
C          1.72700       -5.41600        4.12500
O          1.44500       -5.06700        2.97900
C          3.13200       -7.42300        3.62100
C          3.91300       -8.50300        4.34400
O          3.34700       -9.50300        4.78800
N          5.22000       -8.30800        4.46600
H          0.63400       -8.09200        3.34500
H          2.22300       -6.96800        5.50400
H          2.74600       -7.83900        2.70300
H          3.80700       -6.61100        3.38800
H          5.60300       -7.48800        4.08800
H          5.75000       -8.99000        4.92900
N          1.83800       -4.56000        5.13600
C          1.63100       -3.12900        4.95100
C          2.76500       -2.51000        4.14100
O          2.53100       -1.68900        3.25400
C          1.51300       -2.39800        6.30300
C          2.79300       -2.55200        7.11000
C          1.17900       -0.92900        6.09200
H          2.06500       -4.89900        6.02700
H          0.70300       -2.99400        4.41100
H          0.70700       -2.85000        6.86400
H          3.51000       -1.80700        6.79500
H          3.20400       -3.53800        6.94900
H          2.57600       -2.42000        8.16000
H          0.47600       -0.60700        6.84600
H          0.74400       -0.79500        5.11300
H          2.08200       -0.34000        6.16800
N          3.99500       -2.90800        4.45300
C          5.16300       -2.39100        3.75200
C          5.07200       -2.67400        2.25700
O          5.28200       -1.78400        1.43300
C          6.43500       -2.99400        4.33000
H          4.11700       -3.56500        5.16900
H          5.19800       -1.32200        3.90400
H          6.24100       -4.00700        4.65000
H          6.76000       -2.40500        5.17500
H          7.20800       -2.99700        3.57500
N          4.75300       -3.91700        1.91300
C          4.62700       -4.31800        0.51600
C          3.58200       -3.47400       -0.20900
O          3.57800       -3.39600       -1.43800
C          4.27400       -5.79400        0.42200
H          4.59300       -4.58100        2.61700
H          5.58700       -4.17000        0.04100
H          3.76900       -5.98400       -0.51400
H          3.62500       -6.06300        1.24200
H          5.17800       -6.38300        0.46900
N          2.69400       -2.84500        0.55700
C          1.64600       -2.01100       -0.01400
C          2.13400       -0.57400       -0.19800
O          2.24300       -0.08400       -1.32200
C          0.40100       -2.04800        0.88600
C         -0.48300       -0.84000        0.77700
N         -1.08400       -0.49300       -0.40800
C         -0.83100        0.05900        1.72900
C         -1.78000        0.60100       -0.15500
N         -1.65800        0.97300        1.12800
H          2.74300       -2.94600        1.53000
H          1.39100       -2.41600       -0.98200
H         -0.19200       -2.91200        0.62500
H          0.71700       -2.13600        1.91400
H         -0.51900        0.06000        2.76300
H         -2.37400        1.12600       -0.88900
H         -2.21000        1.63900        1.59000
N          2.42100        0.09500        0.91300
C          2.88800        1.47700        0.88000
C          4.20500        1.61600        0.11500
O          4.55600        2.70600       -0.33300
C          3.06900        2.04100        2.30400
C          3.43500        3.52600        2.24800
C          4.13200        1.25500        3.05700
C          3.10700        4.27600        3.52100
H          2.31000       -0.34900        1.78000
H          2.13300        2.06700        0.37900
H          2.13400        1.92800        2.83000
H          4.49600        3.62300        2.07200
H          2.89600        3.99300        1.43800
H          4.25200        0.28300        2.60100
H          3.82800        1.13300        4.08700
H          5.07000        1.78800        3.01900
H          2.65500        3.60000        4.23200
H          2.42000        5.07900        3.30000
H          4.01500        4.68500        3.94200
N          4.93400        0.51100       -0.03100
C          6.21200        0.52700       -0.74000
C          6.08500        1.23500       -2.08800
O          6.90200        2.08800       -2.43200
C          6.72700       -0.89700       -0.95000
O          7.94100       -0.88800       -1.68000
C          5.75200       -1.78300       -1.69300
H          4.60900       -0.33200        0.34800
H          6.92000        1.06800       -0.13100
H          6.91500       -1.34700        0.01300
H          8.62600       -1.32300       -1.16700
H          5.89700       -2.81000       -1.39300
H          5.92100       -1.69200       -2.75700
H          4.74200       -1.48000       -1.46300
N          5.05400        0.87400       -2.84400
C          4.81900        1.47600       -4.15200
C          3.59200        2.38200       -4.12200
O          3.50700        3.35300       -4.87300
C          4.64000        0.38900       -5.21300
C          3.44600       -0.48400       -4.98200
N          3.52800       -1.73300       -4.40200
C          2.13500       -0.28300       -5.25500
C          2.31900       -2.26200       -4.33000
N          1.45700       -1.40300       -4.84000
H          4.43500        0.18900       -2.51600
H          5.68400        2.07100       -4.40200
H          4.52600        0.85500       -6.18100
H          5.51700       -0.24200       -5.22400
H          4.34900       -2.16600       -4.09100
H          1.70300        0.59500       -5.71400
H          2.07800       -3.23300       -3.92300
H          0.50700       -1.58400       -4.99900
N          2.64400        2.05800       -3.24700
C          1.42300        2.84300       -3.11900
C          1.66700        4.10000       -2.29000
O          2.12400        4.02400       -1.15000
C          0.31700        2.00300       -2.47800
S         -0.43500        0.78100       -3.60200
H          2.76900        1.27300       -2.67600
H          1.11000        3.13600       -4.11000
H          0.72500        1.46600       -1.63600
H         -0.46800        2.65900       -2.13100
H         -1.37500        1.37500       -4.34300
N          1.36100        5.25500       -2.87200
C          1.54700        6.52900       -2.18700
C          0.36400        7.45900       -2.43400
O         -0.59700        7.09100       -3.10800
C          2.84300        7.19700       -2.65300
C          4.08500        6.63000       -2.00200
C          4.20500        6.57700       -0.61900
C          5.13700        6.15000       -2.77200
C          5.34000        6.06100       -0.02200
C          6.27400        5.63200       -2.18100
C          6.37000        5.59000       -0.80700
O          7.50000        5.07400       -0.21600
H          1.00000        5.25100       -3.78300
H          1.61700        6.32800       -1.12800
H          2.94100        7.07100       -3.72100
H          2.79800        8.25200       -2.42200
H          3.39600        6.94700       -0.00700
H          5.05900        6.18500       -3.84800
H          5.41500        6.02800        1.05600
H          7.08100        5.26200       -2.79700
H          8.24000        5.66500       -0.37000
N          0.44200        8.66600       -1.88400
C         -0.62200        9.64900       -2.04500
C         -0.66900       10.17200       -3.47700
O         -1.77700       10.50300       -3.95000
C         -0.42200       10.81300       -1.07300
C          0.85000       11.60600       -1.32600
C          1.41000       12.18600       -0.03800
C          2.38800       11.23000        0.62500
N          3.75900       11.35200        0.05500
O          0.40300       10.24400       -4.11500
H          1.23500        8.90200       -1.35800
H         -1.55900        9.16300       -1.82200
H         -1.26300       11.48600       -1.15600
H         -0.38300       10.42400       -0.06600
H          1.58800       10.95300       -1.76500
H          0.62900       12.41400       -2.00800
H          1.92300       13.10900       -0.26300
H          0.59400       12.38200        0.64200
H          2.42700       11.44900        1.68100
H          2.03600       10.21800        0.48100
H          3.98100       12.35100       -0.12900
H          3.82200       10.82400       -0.83900
H          4.45900       10.96800        0.72100
Zn        -1.37900       -0.89700       -2.34200
