504

N    -14.2836571726    -3.2234721021    1.9116569311
H    -14.1717195964    -6.0108328116    -0.917302254
C    -14.0283924779    -3.1742998873    -0.2707704275
H    -13.9575799961    -2.9827974638    -1.1991031746
C    -13.9069071945    -4.4408967762    1.52824665
H    -13.8892601578    -2.263758446    3.6237182959
H    -13.7820925593    -5.1936558842    2.1019933244
N    -13.7452920003    -4.4402633448    0.2085326813
C    -13.3887575942    -5.5964247282    -0.6169829871
H    -12.9105268428    -5.2960804819    -1.432595366
H    -12.8535054323    -6.1987071736    -0.1121567664
H    -15.3649030472    -2.3047335751    3.293608646
H    -14.6771613805    -3.5630842899    3.8169532129
H    -14.5913352582    -1.5218394527    0.8379149089
C    -14.5786588545    -2.8115003657    3.2873285112
C    -14.3637995751    -2.4138259108    0.7947591108
H    -15.4204887911    -8.162651805    0.7412974504
H    -15.3634673805    -9.0652784968    2.06173605
C    -14.8852366291    -8.7649342505    1.2461236711
N    -14.528702223    -9.9210956338    0.4206080027
H    -14.491901664    -9.1677030945    -1.4728526404
H    -14.3847340655    -12.0976005326    -2.9945776119
C    -14.3670870288    -9.9204622024    -0.899105966
H    -14.3164142273    -11.3785615149    1.8282438586
C    -14.2456017454    -11.1870590913    0.8999111115
H    -14.1022746269    -8.350526167    1.546442938
N    -13.9903370507    -11.1378868766    -1.2825162472
C    -13.9101946483    -11.9475330678    -0.1656184268
C    -13.6953353689    -11.5498586129    -2.6581878272
H    -13.6826589651    -12.8395195259    -0.2087742249
H    -13.5968328429    -10.7982746887    -3.1878125289
H    -12.9090911761    -12.0566254035    -2.664467962
N    -12.8544122299    -8.3177368179    -4.0257274379
C    -12.2568140402    -8.1752263187    -3.0437720012
N    -11.7120280931    -8.0820353632    -1.86101328
C    -10.4716199071    -7.6803786019    -1.7288083909
N    -9.3908360314    -7.3404008588    -1.4871842301
N    -18.8831581919    -7.0209581198    2.1163249141
C    -17.8023743163    -6.6809803768    2.3579490749
N    -16.5619661302    -6.2793236154    2.490153964
C    -16.0171801832    -6.1861326599    3.6729126852
N    -15.4195819935    -6.0436221607    4.6548681218
N    -11.889918191900001    -7.0209581198    2.1163249141
C    -10.8091343163    -6.6809803768    2.3579490749
N    -9.568726130199998    -6.2793236154    2.490153964
C    -9.0239401832    -6.1861326599    3.6729126852
N    -8.4263419935    -6.0436221607    4.6548681218
N    -19.8476522299    -8.3177368179    -4.0257274379
C    -19.2500540402    -8.1752263187    -3.0437720012
N    -18.705268093100003    -8.0820353632    -1.86101328
C    -17.4648599071    -7.6803786019    -1.7288083909
N    -16.3840760314    -7.3404008588    -1.4871842301
H    -18.673053739653994    -0.5446003167296585    0.7412974504
H    -18.616032329053994    -1.4472270085296586    2.06173605
C    -18.137801577653992    -1.1468827622296587    1.2461236711
N    -17.781267171553992    -2.3030441455296593    0.4206080027
H    -17.744466612553992    -1.5496516062296593    -1.4728526404
H    -17.637299014053994    -4.479549044329659    -2.9945776119
C    -17.619651977353993    -2.3024107141296586    -0.899105966
H    -17.568979175853993    -3.7605100266296585    1.8282438586
C    -17.498166693953994    -3.569007603029659    0.8999111115
H    -17.354839575453994    -0.732474678729659    1.546442938
N    -17.242901999253995    -3.5198353883296587    -1.2825162472
C    -17.16275959685399    -4.329481579529659    -0.1656184268
C    -16.947900317453993    -3.9318071246296586    -2.6581878272
H    -16.935223913653992    -5.221468037629659    -0.2087742249
H    -16.849397791453992    -3.1802232004296584    -3.1878125289
H    -16.161656124653994    -4.438573915229659    -2.664467962
C    -11.326093905946006    -10.429551853970342    3.2873285112
C    -11.111234626546006    -10.031877399070341    0.7947591108
N    -11.031092224046006    -10.841523590370342    1.9116569311
H    -10.919154647846005    -13.628884299870341    -0.917302254
C    -10.775827529346007    -10.792351375570341    -0.2707704275
H    -10.705015047546006    -10.60084895207034    -1.1991031746
C    -10.654342245946006    -12.058948264470342    1.52824665
H    -10.636695209246007    -9.881809934270342    3.6237182959
H    -10.529527610746007    -12.811707372470341    2.1019933244
N    -10.492727051746005    -12.058314833070341    0.2085326813
C    -10.136192645646005    -13.214476216470342    -0.6169829871
H    -9.657961894246005    -12.914131970170342    -1.432595366
H    -9.600940483746006    -13.816758661870342    -0.1121567664
H    -12.112338098646006    -9.922785063370341    3.293608646
H    -11.424596431946005    -11.18113577817034    3.8169532129
H    -11.338770309646007    -9.139890940970341    0.8379149089
H    -19.105578098646006    -9.922785063370341    3.293608646
H    -18.417836431946007    -11.18113577817034    3.8169532129
H    -18.33201030964601    -9.139890940970341    0.8379149089
C    -18.319333905946007    -10.429551853970342    3.2873285112
C    -18.104474626546008    -10.031877399070341    0.7947591108
N    -18.024332224046006    -10.841523590370342    1.9116569311
H    -17.912394647846007    -13.628884299870341    -0.917302254
C    -17.769067529346007    -10.792351375570341    -0.2707704275
H    -17.698255047546006    -10.60084895207034    -1.1991031746
C    -17.64758224594601    -12.058948264470342    1.52824665
H    -17.629935209246007    -9.881809934270342    3.6237182959
H    -17.52276761074601    -12.811707372470341    2.1019933244
N    -17.485967051746005    -12.058314833070341    0.2085326813
C    -17.129432645646006    -13.214476216470342    -0.6169829871
H    -16.651201894246007    -12.914131970170342    -1.432595366
H    -16.59418048374601    -13.816758661870342    -0.1121567664
C    -10.626411977353994    -2.3024107141296586    -0.899105966
H    -10.575739175853993    -3.7605100266296585    1.8282438586
C    -10.504926693953994    -3.569007603029659    0.8999111115
H    -10.361599575453994    -0.732474678729659    1.546442938
N    -10.249661999253995    -3.5198353883296587    -1.2825162472
C    -10.169519596853993    -4.329481579529659    -0.1656184268
C    -9.954660317453994    -3.9318071246296586    -2.6581878272
H    -9.941983913653994    -5.221468037629659    -0.2087742249
H    -9.856157791453994    -3.1802232004296584    -3.1878125289
H    -9.168416124653994    -4.438573915229659    -2.664467962
H    -11.679813739653994    -0.5446003167296585    0.7412974504
H    -11.622792329053993    -1.4472270085296586    2.06173605
C    -11.144561577653993    -1.1468827622296587    1.2461236711
N    -10.788027171553994    -2.3030441455296593    0.4206080027
H    -10.751226612553994    -1.5496516062296593    -1.4728526404
H    -10.644059014053994    -4.479549044329659    -2.9945776119
N    -15.18914324418052    -11.0344661010548    4.025727437804506
C    -14.591545054480523    -10.8919556018548    5.007682874504506
N    -14.046759107380524    -10.7987646463548    6.190441595704506
C    -12.80635092138052    -10.397107885054801    6.322646484804506
N    -11.72556704568052    -10.0571301419548    6.5642706456045055
N    -16.54842717761948    -4.3042288366451995    -5.935129961604506
C    -15.467643302019479    -3.9642510936451996    -5.693505800804505
N    -14.227235115919477    -3.5625943322451996    -5.561300911704506
C    -13.68244916891948    -3.4694033767451997    -4.378542190504506
N    -13.084850979219478    -3.3268928775451996    -3.396586753904506
N    -13.295862229065486    -11.92228032491554    -5.935129961604506
C    -12.215078353465485    -11.582302581915542    -5.693505800804505
N    -10.974670167365483    -11.18064582051554    -5.561300911704506
C    -10.429884220365485    -11.087454865015541    -4.378542190504506
N    -9.832286030665484    -10.944944365815541    -3.396586753904506
N    -17.299324055934516    -3.1807131580844583    6.190441595704506
C    -16.058915869934516    -2.7790563967844593    6.322646484804506
N    -14.978131994234515    -2.439078653684459    6.5642706456045055
N    -18.441708192734517    -3.4164146127844592    4.025727437804506
C    -17.844110003034515    -3.273904113584459    5.007682874504506
N    -15.630593243346008    -14.639009608070342    2.1163249141
C    -14.549809367746006    -14.29903186507034    2.3579490749
N    -13.309401181646004    -13.897375103670342    2.490153964
C    -12.764615234646007    -13.804184148170341    3.6729126852
N    -12.167017044946006    -13.661673648970341    4.6548681218
N    -16.10697717845399    -0.6996853296296592    -4.0257274379
C    -15.509378988753994    -0.5571748304296591    -3.0437720012
N    -14.964593041653995    -0.4639838749296583    -1.86101328
C    -13.724184855653993    -0.06232711362965926    -1.7288083909
N    -12.643400979953993    0.27765062947034114    -1.4871842301
C    -15.984602891665485    -7.712822570815542    -4.764126364504506
C    -15.769743612265485    -7.315148115915541    -7.256695764904506
N    -15.689601209765485    -8.124794307215542    -6.139797944604506
H    -15.577663633565484    -10.912155016715541    -8.968757129704507
C    -15.434336515065485    -8.075622092415541    -8.322225303204506
H    -15.363524033265485    -7.884119668915541    -9.250558050304505
C    -15.312851231665485    -9.34221898131554    -6.523208225704506
H    -15.295204194965486    -7.165080651115542    -4.427736579804506
H    -15.188036596465485    -10.094978089315541    -5.9494615513045055
N    -15.151236037465484    -9.341585549915541    -7.8429221944045056
C    -14.794701631365484    -10.49774693331554    -8.668437862804506
H    -14.316470879965484    -10.19740268701554    -9.484050241704505
H    -14.259449469465485    -11.10002937871554    -8.163611642104506
H    -16.770847084365485    -7.206055780215541    -4.757846229704506
H    -16.083105417665482    -8.464406495015542    -4.234501662804506
H    -15.997279295365486    -6.423161657815541    -7.213539966804506
H    -14.014544753934516    -3.2613295998844585    8.792752326104505
H    -13.957523343334515    -4.163956291684459    10.113190925704506
C    -13.479292591934515    -3.8636120453844587    9.297578546804505
N    -13.122758185834515    -5.019773428684459    8.472062878404506
H    -13.085957626834515    -4.266380889384459    6.578602235304506
H    -12.978790028334515    -7.196278327484459    5.056877263804505
C    -12.961142991634516    -5.019139997284459    7.152348909704505
H    -12.910470190134514    -6.4772393097844585    9.879698734304506
C    -12.839657708234515    -6.285736886184459    8.951365987204506
H    -12.696330589734515    -3.449203961884459    9.597897813704506
N    -12.584393013534516    -6.236564671484459    6.768938628504506
C    -12.504250611134514    -7.046210862684459    7.885836448904506
C    -12.289391331734516    -6.648536407784459    5.393267048504506
H    -12.276714927934515    -7.938197320784459    7.842680650804506
H    -12.190888805734515    -5.8969524835844584    4.863642346804506
H    -11.503147138934516    -7.155303198384459    5.386986913704506
H    -22.358143047200002    -2.3047335751    3.293608646
H    -21.6704013805    -3.5630842899    3.8169532129
H    -21.5845752582    -1.5218394527    0.8379149089
C    -21.5718988545    -2.8115003657    3.2873285112
C    -21.3570395751    -2.4138259108    0.7947591108
N    -21.276897172600002    -3.2234721021    1.9116569311
H    -21.1649595964    -6.0108328116    -0.917302254
C    -21.0216324779    -3.1742998873    -0.2707704275
H    -20.9508199961    -2.9827974638    -1.1991031746
C    -20.9001471945    -4.4408967762    1.52824665
H    -20.882500157800003    -2.263758446    3.6237182959
H    -20.7753325593    -5.1936558842    2.1019933244
N    -20.738532000299998    -4.4402633448    0.2085326813
C    -20.3819975942    -5.5964247282    -0.6169829871
H    -19.9037668428    -5.2960804819    -1.432595366
H    -19.8467454323    -6.1987071736    -0.1121567664
H    -5.9158511761    -12.0566254035    -2.664467962
H    -8.4272487911    -8.162651805    0.7412974504
H    -8.3702273805    -9.0652784968    2.06173605
C    -7.891996629099999    -8.7649342505    1.2461236711
N    -7.535462223    -9.9210956338    0.4206080027
H    -7.498661664    -9.1677030945    -1.4728526404
H    -7.3914940655    -12.0976005326    -2.9945776119
C    -7.3738470288    -9.9204622024    -0.899105966
H    -7.323174227299999    -11.3785615149    1.8282438586
C    -7.2523617454    -11.1870590913    0.8999111115
H    -7.1090346269    -8.350526167    1.546442938
N    -6.997097050700001    -11.1378868766    -1.2825162472
C    -6.916954648299999    -11.9475330678    -0.1656184268
C    -6.7020953689    -11.5498586129    -2.6581878272
H    -6.6894189651    -12.8395195259    -0.2087742249
H    -6.6035928428999995    -10.7982746887    -3.1878125289
H    -21.3779740655    -12.0976005326    -2.9945776119
C    -21.3603270288    -9.9204622024    -0.899105966
H    -21.3096542273    -11.3785615149    1.8282438586
C    -21.238841745400002    -11.1870590913    0.8999111115
H    -21.0955146269    -8.350526167    1.546442938
N    -20.9835770507    -11.1378868766    -1.2825162472
C    -20.9034346483    -11.9475330678    -0.1656184268
C    -20.6885753689    -11.5498586129    -2.6581878272
H    -20.6758989651    -12.8395195259    -0.2087742249
H    -20.5900728429    -10.7982746887    -3.1878125289
H    -19.9023311761    -12.0566254035    -2.664467962
H    -22.4137287911    -8.162651805    0.7412974504
H    -22.356707380499998    -9.0652784968    2.06173605
C    -21.8784766291    -8.7649342505    1.2461236711
N    -21.521942223    -9.9210956338    0.4206080027
H    -21.485141664    -9.1677030945    -1.4728526404
H    -8.3716630472    -2.3047335751    3.293608646
H    -7.683921380499999    -3.5630842899    3.8169532129
H    -7.598095258200001    -1.5218394527    0.8379149089
C    -7.5854188545    -2.8115003657    3.2873285112
C    -7.3705595751    -2.4138259108    0.7947591108
N    -7.2904171726    -3.2234721021    1.9116569311
H    -7.178479596399999    -6.0108328116    -0.917302254
C    -7.0351524779000005    -3.1742998873    -0.2707704275
H    -6.9643399961    -2.9827974638    -1.1991031746
C    -6.9136671945    -4.4408967762    1.52824665
H    -6.896020157800001    -2.263758446    3.6237182959
H    -6.7888525593    -5.1936558842    2.1019933244
N    -6.752052000299999    -4.4402633448    0.2085326813
C    -6.395517594199999    -5.5964247282    -0.6169829871
H    -5.917286842799999    -5.2960804819    -1.432595366
H    -5.8602654323    -6.1987071736    -0.1121567664
N    -11.448468192734515    -3.4164146127844592    4.025727437804506
C    -10.850870003034515    -3.273904113584459    5.007682874504506
N    -10.306084055934516    -3.1807131580844583    6.190441595704506
C    -9.065675869934514    -2.7790563967844593    6.322646484804506
N    -7.9848919942345145    -2.439078653684459    6.5642706456045055
N    -20.289102229065485    -11.92228032491554    -5.935129961604506
C    -19.208318353465483    -11.582302581915542    -5.693505800804505
N    -17.96791016736548    -11.18064582051554    -5.561300911704506
C    -17.423124220365484    -11.087454865015541    -4.378542190504506
N    -16.825526030665483    -10.944944365815541    -3.396586753904506
N    -16.595087281346007    -15.935788306170341    -4.0257274379
C    -15.997489091646006    -15.793277806970341    -3.0437720012
N    -15.452703144546007    -15.70008685147034    -1.86101328
C    -14.212294958546005    -15.298430090170342    -1.7288083909
N    -13.131511082846005    -14.958452347070342    -1.4871842301
N    -15.142483140453995    0.5970933684703406    2.1163249141
C    -14.061699264853994    0.937071111470341    2.3579490749
N    -12.821291078753992    1.338727872870341    2.490153964
C    -12.276505131753995    1.4319188283703408    3.6729126852
N    -11.678906942053993    1.574429327570341    4.6548681218
H    -10.574360161819477    -9.3398961203452    -10.715922837704506
H    -13.085757776819477    -5.445922521845199    -7.310157425304506
H    -13.028736366219476    -6.3485492136451995    -5.9897188257045055
C    -12.550505614819478    -6.0482049673452    -6.805331204604506
N    -12.193971208719478    -7.2043663506452    -7.630846873004506
H    -12.157170649719479    -6.4509738113452    -9.524307516104505
H    -12.050003051219477    -9.3808712494452    -11.046032487604506
C    -12.032356014519479    -7.2037329192451995    -8.950560841704506
H    -11.981683213019476    -8.6618322317452    -6.223211017104505
C    -11.910870731119477    -8.4703298081452    -7.151543764204506
H    -11.767543612619477    -5.6337968838452    -6.505011937704506
N    -11.655606036419478    -8.4211575934452    -9.333971122904506
C    -11.575463634019478    -9.2308037846452    -8.217073302504506
C    -11.360604354619479    -8.8331293297452    -10.709642702904507
H    -11.347927950819479    -10.1227902427452    -8.260229100604507
H    -11.262101828619478    -8.0815454055452    -11.239267404604506
H    -17.699634061480523    -5.0214628582548    11.345063521704507
H    -17.01189239478052    -6.279813573054801    11.868408088604506
H    -16.926066272480522    -4.2385687358548    8.889369784604506
C    -16.913389868780524    -5.528229648854801    11.338783386904506
C    -16.69853058938052    -5.1305551939548    8.846213986504505
N    -16.618388186880523    -5.940201385254801    9.963111806804505
H    -16.50645061068052    -8.7275620947548    7.134152621704506
C    -16.363123492180524    -5.8910291704548    7.780684448204505
H    -16.292311010380523    -5.699526746954801    6.852351701104506
C    -16.241638208780522    -7.157626059354801    9.579701525704506
H    -16.223991172080524    -4.980487729154801    11.675173171604506
H    -16.116823573580522    -7.9103851673548    10.153448200104506
N    -16.080023014580522    -7.1569926279548    8.259987557004505
C    -15.723488608480523    -8.3131540113548    7.434471888604506
H    -15.24525785708052    -8.0128097650548    6.618859509704506
H    -15.188236446580522    -8.9154364567548    7.939298109304506
N    -9.55518717761948    -4.3042288366451995    -5.935129961604506
C    -8.474403302019478    -3.9642510936451996    -5.693505800804505
N    -7.233995115919477    -3.5625943322451996    -5.561300911704506
C    -6.689209168919479    -3.4694033767451997    -4.378542190504506
N    -6.091610979219478    -3.3268928775451996    -3.396586753904506
N    -22.18238324418052    -11.0344661010548    4.025727437804506
C    -21.58478505448052    -10.8919556018548    5.007682874504506
N    -21.039999107380524    -10.7987646463548    6.190441595704506
C    -19.79959092138052    -10.397107885054801    6.322646484804506
N    -18.71880704568052    -10.0571301419548    6.5642706456045055
H    -21.007784753934516    -3.2613295998844585    8.792752326104505
H    -20.950763343334515    -4.163956291684459    10.113190925704506
C    -20.472532591934517    -3.8636120453844587    9.297578546804505
N    -20.115998185834513    -5.019773428684459    8.472062878404506
H    -20.079197626834514    -4.266380889384459    6.578602235304506
H    -19.972030028334515    -7.196278327484459    5.056877263804505
C    -19.954382991634517    -5.019139997284459    7.152348909704505
H    -19.903710190134515    -6.4772393097844585    9.879698734304506
C    -19.832897708234515    -6.285736886184459    8.951365987204506
H    -19.689570589734515    -3.449203961884459    9.597897813704506
N    -19.577633013534516    -6.236564671484459    6.768938628504506
C    -19.497490611134516    -7.046210862684459    7.885836448904506
C    -19.282631331734514    -6.648536407784459    5.393267048504506
H    -19.269954927934513    -7.938197320784459    7.842680650804506
H    -19.184128805734517    -5.8969524835844584    4.863642346804506
H    -18.496387138934516    -7.155303198384459    5.386986913704506
C    -7.801461631365484    -10.49774693331554    -8.668437862804506
H    -7.323230879965484    -10.19740268701554    -9.484050241704505
H    -7.266209469465485    -11.10002937871554    -8.163611642104506
H    -9.777607084365485    -7.206055780215541    -4.757846229704506
H    -9.089865417665484    -8.464406495015542    -4.234501662804506
H    -9.004039295365486    -6.423161657815541    -7.213539966804506
C    -8.991362891665485    -7.712822570815542    -4.764126364504506
C    -8.776503612265484    -7.315148115915541    -7.256695764904506
N    -8.696361209765485    -8.124794307215542    -6.139797944604506
H    -8.584423633565484    -10.912155016715541    -8.968757129704507
C    -8.441096515065485    -8.075622092415541    -8.322225303204506
H    -8.370284033265484    -7.884119668915541    -9.250558050304505
C    -8.319611231665485    -9.34221898131554    -6.523208225704506
H    -8.301964194965485    -7.165080651115542    -4.427736579804506
H    -8.194796596465485    -10.094978089315541    -5.9494615513045055
N    -8.157996037465484    -9.341585549915541    -7.8429221944045056
N    -8.19590324418052    -11.0344661010548    4.025727437804506
C    -7.598305054480522    -10.8919556018548    5.007682874504506
N    -7.053519107380523    -10.7987646463548    6.190441595704506
C    -5.813110921380521    -10.397107885054801    6.322646484804506
N    -4.732327045680521    -10.0571301419548    6.5642706456045055
N    -23.54166717761948    -4.3042288366451995    -5.935129961604506
C    -22.46088330201948    -3.9642510936451996    -5.693505800804505
N    -21.220475115919477    -3.5625943322451996    -5.561300911704506
C    -20.67568916891948    -3.4694033767451997    -4.378542190504506
N    -20.07809097921948    -3.3268928775451996    -3.396586753904506
H    -13.030172032919477    0.41199570805480024    -4.757846229704506
H    -12.342430366219478    -0.8463550067451995    -4.234501662804506
H    -12.25660424391948    1.1948898304548004    -7.213539966804506
C    -12.243927840219477    -0.09477108254519973    -4.764126364504506
C    -12.029068560819479    0.30290337235480047    -7.256695764904506
N    -11.948926158319477    -0.5067428189451997    -6.139797944604506
H    -11.836988582119478    -3.2941035284452    -8.968757129704507
C    -11.693661463619478    -0.4575706041451997    -8.322225303204506
H    -11.622848981819477    -0.26606818064519944    -9.250558050304505
C    -11.57217618021948    -1.7241674930451993    -6.523208225704506
H    -11.554529143519478    0.45297083715480024    -4.427736579804506
H    -11.44736154501948    -2.4769266010451996    -5.9494615513045055
N    -11.410560986019476    -1.7235340616451995    -7.8429221944045056
C    -11.054026579919476    -2.8796954450451993    -8.668437862804506
H    -10.575795828519478    -2.5793511987451994    -9.484050241704505
H    -10.518774418019479    -3.4819778904451995    -8.163611642104506
H    -16.719465079780523    -14.8143298157548    5.056877263804505
C    -16.70181804308052    -12.6371914855548    7.152348909704505
H    -16.651145241580522    -14.0952907980548    9.879698734304506
C    -16.580332759680523    -13.9037883744548    8.951365987204506
H    -16.437005641180523    -11.0672554501548    9.597897813704506
N    -16.325068064980524    -13.8546161597548    6.768938628504506
C    -16.24492566258052    -14.6642623509548    7.885836448904506
C    -16.03006638318052    -14.2665878960548    5.393267048504506
H    -16.01738997938052    -15.5562488090548    7.842680650804506
H    -15.931563857180521    -13.5150039718548    4.863642346804506
H    -15.243822190380524    -14.7733546866548    5.386986913704506
H    -17.755219805380523    -10.8793810881548    8.792752326104505
H    -17.698198394780523    -11.7820077799548    10.113190925704506
C    -17.21996764338052    -11.4816635336548    9.297578546804505
N    -16.86343323728052    -12.6378249169548    8.472062878404506
H    -16.82663267828052    -11.8844323776548    6.578602235304506
N    -9.113737178453993    -0.6996853296296592    -4.0257274379
C    -8.516138988753994    -0.5571748304296591    -3.0437720012
N    -7.971353041653995    -0.4639838749296583    -1.86101328
C    -6.730944855653993    -0.06232711362965926    -1.7288083909
N    -5.650160979953993    0.27765062947034114    -1.4871842301
N    -22.62383324334601    -14.639009608070342    2.1163249141
C    -21.543049367746008    -14.29903186507034    2.3579490749
N    -20.302641181646006    -13.897375103670342    2.490153964
C    -19.75785523464601    -13.804184148170341    3.6729126852
N    -19.160257044946007    -13.661673648970341    4.6548681218
H    -17.567600161819477    -9.3398961203452    -10.715922837704506
H    -20.078997776819477    -5.445922521845199    -7.310157425304506
H    -20.021976366219477    -6.3485492136451995    -5.9897188257045055
C    -19.54374561481948    -6.0482049673452    -6.805331204604506
N    -19.18721120871948    -7.2043663506452    -7.630846873004506
H    -19.15041064971948    -6.4509738113452    -9.524307516104505
H    -19.043243051219477    -9.3808712494452    -11.046032487604506
C    -19.02559601451948    -7.2037329192451995    -8.950560841704506
H    -18.974923213019476    -8.6618322317452    -6.223211017104505
C    -18.904110731119477    -8.4703298081452    -7.151543764204506
H    -18.760783612619477    -5.6337968838452    -6.505011937704506
N    -18.648846036419478    -8.4211575934452    -9.333971122904506
C    -18.568703634019478    -9.2308037846452    -8.217073302504506
C    -18.35384435461948    -8.8331293297452    -10.709642702904507
H    -18.34116795081948    -10.1227902427452    -8.260229100604507
H    -18.25534182861948    -8.0815454055452    -11.239267404604506
H    -10.706394061480523    -5.0214628582548    11.345063521704507
H    -10.01865239478052    -6.279813573054801    11.868408088604506
H    -9.932826272480522    -4.2385687358548    8.889369784604506
C    -9.920149868780523    -5.528229648854801    11.338783386904506
C    -9.705290589380521    -5.1305551939548    8.846213986504505
N    -9.625148186880523    -5.940201385254801    9.963111806804505
H    -9.51321061068052    -8.7275620947548    7.134152621704506
C    -9.369883492180524    -5.8910291704548    7.780684448204505
H    -9.299071010380523    -5.699526746954801    6.852351701104506
C    -9.248398208780522    -7.157626059354801    9.579701525704506
H    -9.230751172080524    -4.980487729154801    11.675173171604506
H    -9.123583573580522    -7.9103851673548    10.153448200104506
N    -9.086783014580522    -7.1569926279548    8.259987557004505
C    -8.730248608480522    -8.3131540113548    7.434471888604506
H    -8.25201785708052    -8.0128097650548    6.618859509704506
H    -8.194996446580522    -8.9154364567548    7.939298109304506
N    -5.861172229899999    -8.3177368179    -4.0257274379
C    -5.2635740402    -8.1752263187    -3.0437720012
N    -4.718788093100001    -8.0820353632    -1.86101328
C    -3.478379907099999    -7.6803786019    -1.7288083909
N    -2.397596031399999    -7.3404008588    -1.4871842301
N    -25.8763981919    -7.0209581198    2.1163249141
C    -24.7956143163    -6.6809803768    2.3579490749
N    -23.5552061302    -6.2793236154    2.490153964
C    -23.0104201832    -6.1861326599    3.6729126852
N    -22.4128219935    -6.0436221607    4.6548681218
N    -8.637353243346007    -14.639009608070342    2.1163249141
C    -7.556569367746006    -14.29903186507034    2.3579490749
N    -6.316161181646004    -13.897375103670342    2.490153964
C    -5.7713752346460065    -13.804184148170341    3.6729126852
N    -5.173777044946005    -13.661673648970341    4.6548681218
N    -23.100217178453995    -0.6996853296296592    -4.0257274379
C    -22.502618988753994    -0.5571748304296591    -3.0437720012
N    -21.957833041653995    -0.4639838749296583    -1.86101328
C    -20.717424855653995    -0.06232711362965926    -1.7288083909
N    -19.636640979953995    0.27765062947034114    -1.4871842301
H    -20.023412032919477    0.41199570805480024    -4.757846229704506
H    -19.335670366219478    -0.8463550067451995    -4.234501662804506
H    -19.24984424391948    1.1948898304548004    -7.213539966804506
C    -19.237167840219477    -0.09477108254519973    -4.764126364504506
C    -19.02230856081948    0.30290337235480047    -7.256695764904506
N    -18.942166158319477    -0.5067428189451997    -6.139797944604506
H    -18.830228582119478    -3.2941035284452    -8.968757129704507
C    -18.686901463619478    -0.4575706041451997    -8.322225303204506
H    -18.616088981819477    -0.26606818064519944    -9.250558050304505
C    -18.56541618021948    -1.7241674930451993    -6.523208225704506
H    -18.547769143519478    0.45297083715480024    -4.427736579804506
H    -18.44060154501948    -2.4769266010451996    -5.9494615513045055
N    -18.403800986019476    -1.7235340616451995    -7.8429221944045056
C    -18.047266579919476    -2.8796954450451993    -8.668437862804506
H    -17.56903582851948    -2.5793511987451994    -9.484050241704505
H    -17.51201441801948    -3.4819778904451995    -8.163611642104506
H    -9.726225079780523    -14.8143298157548    5.056877263804505
C    -9.708578043080522    -12.6371914855548    7.152348909704505
H    -9.657905241580522    -14.0952907980548    9.879698734304506
C    -9.587092759680523    -13.9037883744548    8.951365987204506
H    -9.443765641180523    -11.0672554501548    9.597897813704506
N    -9.331828064980524    -13.8546161597548    6.768938628504506
C    -9.25168566258052    -14.6642623509548    7.885836448904506
C    -9.036826383180522    -14.2665878960548    5.393267048504506
H    -9.024149979380521    -15.5562488090548    7.842680650804506
H    -8.93832385718052    -13.5150039718548    4.863642346804506
H    -8.250582190380523    -14.7733546866548    5.386986913704506
H    -10.761979805380523    -10.8793810881548    8.792752326104505
H    -10.704958394780522    -11.7820077799548    10.113190925704506
C    -10.22672764338052    -11.4816635336548    9.297578546804505
N    -9.870193237280521    -12.6378249169548    8.472062878404506
H    -9.833392678280521    -11.8844323776548    6.578602235304506
H    -23.764087084365485    -7.206055780215541    -4.757846229704506
H    -23.076345417665483    -8.464406495015542    -4.234501662804506
H    -22.990519295365484    -6.423161657815541    -7.213539966804506
C    -22.97784289166548    -7.712822570815542    -4.764126364504506
C    -22.762983612265483    -7.315148115915541    -7.256695764904506
N    -22.682841209765485    -8.124794307215542    -6.139797944604506
H    -22.570903633565482    -10.912155016715541    -8.968757129704507
C    -22.427576515065482    -8.075622092415541    -8.322225303204506
H    -22.356764033265485    -7.884119668915541    -9.250558050304505
C    -22.306091231665484    -9.34221898131554    -6.523208225704506
H    -22.288444194965486    -7.165080651115542    -4.427736579804506
H    -22.181276596465484    -10.094978089315541    -5.9494615513045055
N    -22.14447603746548    -9.341585549915541    -7.8429221944045056
C    -21.787941631365484    -10.49774693331554    -8.668437862804506
H    -21.309710879965483    -10.19740268701554    -9.484050241704505
H    -21.252689469465484    -11.10002937871554    -8.163611642104506
H    -6.092717626834517    -4.266380889384459    6.578602235304506
H    -5.985550028334517    -7.196278327484459    5.056877263804505
C    -5.967902991634517    -5.019139997284459    7.152348909704505
H    -5.917230190134516    -6.4772393097844585    9.879698734304506
C    -5.846417708234517    -6.285736886184459    8.951365987204506
H    -5.703090589734517    -3.449203961884459    9.597897813704506
N    -5.591153013534518    -6.236564671484459    6.768938628504506
C    -5.511010611134516    -7.046210862684459    7.885836448904506
C    -5.296151331734517    -6.648536407784459    5.393267048504506
H    -5.283474927934517    -7.938197320784459    7.842680650804506
H    -5.1976488057345165    -5.8969524835844584    4.863642346804506
H    -4.509907138934517    -7.155303198384459    5.386986913704506
H    -7.021304753934517    -3.2613295998844585    8.792752326104505
H    -6.964283343334516    -4.163956291684459    10.113190925704506
C    -6.486052591934516    -3.8636120453844587    9.297578546804505
N    -6.129518185834517    -5.019773428684459    8.472062878404506
