42

N    -18.8831581919    -7.0209581198    2.1163249141
C    -17.8023743163    -6.6809803768    2.3579490749
N    -16.5619661302    -6.2793236154    2.490153964
C    -16.0171801832    -6.1861326599    3.6729126852
N    -15.4195819935    -6.0436221607    4.6548681218
H    -15.4204887911    -8.162651805    0.7412974504
H    -15.3634673805    -9.0652784968    2.06173605
C    -14.8852366291    -8.7649342505    1.2461236711
N    -14.528702223    -9.9210956338    0.4206080027
H    -14.491901664    -9.1677030945    -1.4728526404
H    -14.3847340655    -12.0976005326    -2.9945776119
C    -14.3670870288    -9.9204622024    -0.899105966
H    -14.3164142273    -11.3785615149    1.8282438586
C    -14.2456017454    -11.1870590913    0.8999111115
H    -14.1022746269    -8.350526167    1.546442938
N    -13.9903370507    -11.1378868766    -1.2825162472
C    -13.9101946483    -11.9475330678    -0.1656184268
C    -13.6953353689    -11.5498586129    -2.6581878272
H    -13.6826589651    -12.8395195259    -0.2087742249
H    -13.5968328429    -10.7982746887    -3.1878125289
H    -12.9090911761    -12.0566254035    -2.664467962
N    -12.8544122299    -8.3177368179    -4.0257274379
C    -12.2568140402    -8.1752263187    -3.0437720012
N    -11.7120280931    -8.0820353632    -1.86101328
C    -10.4716199071    -7.6803786019    -1.7288083909
N    -9.3908360314    -7.3404008588    -1.4871842301
H    -15.3649030472    -2.3047335751    3.293608646
H    -14.6771613805    -3.5630842899    3.8169532129
H    -14.5913352582    -1.5218394527    0.8379149089
C    -14.5786588545    -2.8115003657    3.2873285112
C    -14.3637995751    -2.4138259108    0.7947591108
N    -14.2836571726    -3.2234721021    1.9116569311
H    -14.1717195964    -6.0108328116    -0.917302254
C    -14.0283924779    -3.1742998873    -0.2707704275
H    -13.9575799961    -2.9827974638    -1.1991031746
C    -13.9069071945    -4.4408967762    1.52824665
H    -13.8892601578    -2.263758446    3.6237182959
H    -13.7820925593    -5.1936558842    2.1019933244
N    -13.7452920003    -4.4402633448    0.2085326813
C    -13.3887575942    -5.5964247282    -0.6169829871
H    -12.9105268428    -5.2960804819    -1.432595366
H    -12.8535054323    -6.1987071736    -0.1121567664
