786

C    2.272    -1.288    5.023
C    2.272    -21.708    5.023
C    2.272    -11.498    5.023
C    23.262    -16.603    2.735
C    23.262    -6.393    2.735
C    23.262    3.817    2.735
C    0.309    0.714    8.955
C    0.309    -19.706    8.955
C    0.309    -9.496    8.955
C    25.225    -14.601    -1.197
C    25.225    -4.391    -1.197
C    25.225    5.819    -1.197
C    3.733    -1.753    5.082
C    3.733    -22.173    5.082
C    3.733    -11.963    5.082
C    21.801    -17.068    2.676
C    21.801    -6.858    2.676
C    21.801    3.352    2.676
O    4.327    -1.472    6.347
O    4.327    -21.892    6.347
O    4.327    -11.682    6.347
O    21.207    -16.787    1.411
O    21.207    -6.577    1.411
O    21.207    3.633    1.411
C    -1.125    1.253    9.023
C    -1.125    -19.167    9.023
C    -1.125    -8.957    9.023
C    26.659    -14.062    -1.265
C    26.659    -3.852    -1.265
C    26.659    6.358    -1.265
O    -1.74    0.978    10.278
O    -1.74    -19.442    10.278
O    -1.74    -9.232    10.278
O    27.274    -14.337    -2.52
O    27.274    -4.127    -2.52
O    27.274    6.083    -2.52
C    4.541    -1.177    3.926
C    4.541    -21.597    3.926
C    4.541    -11.387    3.926
C    20.993    -16.492    3.832
C    20.993    -6.282    3.832
C    20.993    3.928    3.832
O    5.822    -1.802    3.903
O    5.822    -22.222    3.903
O    5.822    -12.012    3.903
O    19.712    -17.117    3.855
O    19.712    -6.907    3.855
O    19.712    3.303    3.855
C    -1.968    0.735    7.865
C    -1.968    -19.685    7.865
C    -1.968    -9.475    7.865
C    27.502    -14.58    -0.107
C    27.502    -4.37    -0.107
C    27.502    5.84    -0.107
O    -3.221    1.419    7.863
O    -3.221    -19.001    7.863
O    -3.221    -8.791    7.863
O    28.755    -13.896    -0.105
O    28.755    -3.686    -0.105
O    28.755    6.524    -0.105
C    3.83    -1.432    2.607
C    3.83    -21.852    2.607
C    3.83    -11.642    2.607
C    21.704    -16.747    5.151
C    21.704    -6.537    5.151
C    21.704    3.673    5.151
C    -1.264    0.976    6.54
C    -1.264    -19.444    6.54
C    -1.264    -9.234    6.54
C    26.798    -14.339    1.218
C    26.798    -4.129    1.218
C    26.798    6.081    1.218
O    -1.987    0.273    5.541
O    -1.987    -20.147    5.541
O    -1.987    -9.937    5.541
O    27.521    -15.042    2.217
O    27.521    -4.832    2.217
O    27.521    5.378    2.217
C    2.377    -0.947    2.685
C    2.377    -21.367    2.685
C    2.377    -11.157    2.685
C    23.157    -16.262    5.073
C    23.157    -6.052    5.073
C    23.157    4.158    5.073
O    1.707    -1.599    3.77
O    1.707    -22.019    3.77
O    1.707    -11.809    3.77
O    23.827    -16.914    3.988
O    23.827    -6.704    3.988
O    23.827    3.506    3.988
C    0.161    0.416    6.594
C    0.161    -20.004    6.594
C    0.161    -9.794    6.594
C    25.373    -14.899    1.164
C    25.373    -4.689    1.164
C    25.373    5.521    1.164
O    0.883    0.995    7.698
O    0.883    -19.425    7.698
O    0.883    -9.215    7.698
O    24.651    -14.32    0.06
O    24.651    -4.11    0.06
O    24.651    6.1    0.06
C    1.611    -1.245    1.4
C    1.611    -21.665    1.4
C    1.611    -11.455    1.4
C    23.923    -16.56    6.358
C    23.923    -6.35    6.358
C    23.923    3.86    6.358
O    0.0    -0.687    1.384
O    0.0    -21.107    1.384
O    0.0    -10.897    1.384
O    25.534    -16.002    6.374
O    25.534    -5.792    6.374
O    25.534    4.418    6.374
C    0.941    0.897    5.313
C    0.941    -19.523    5.313
C    0.941    -9.313    5.313
C    24.593    -14.418    2.445
C    24.593    -4.208    2.445
C    24.593    6.002    2.445
O    2.241    0.092    5.304
O    2.241    -20.328    5.304
O    2.241    -10.118    5.304
O    23.293    -15.223    2.454
O    23.293    -5.013    2.454
O    23.293    5.197    2.454
H    1.731    -1.793    5.768
H    1.731    -22.213    5.768
H    1.731    -12.003    5.768
H    23.803    -17.108    1.99
H    23.803    -6.898    1.99
H    23.803    3.312    1.99
H    0.886    1.162    9.71
H    0.886    -19.258    9.71
H    0.886    -9.048    9.71
H    24.648    -14.153    -1.952
H    24.648    -3.943    -1.952
H    24.648    6.267    -1.952
H    3.729    -2.797    4.967
H    3.729    -23.217    4.967
H    3.729    -13.007    4.967
H    21.805    -18.112    2.791
H    21.805    -7.902    2.791
H    21.805    2.308    2.791
H    -1.071    2.297    8.926
H    -1.071    -18.123    8.926
H    -1.071    -7.913    8.926
H    26.605    -13.018    -1.168
H    26.605    -2.808    -1.168
H    26.605    7.402    -1.168
H    4.66    -0.143    4.064
H    4.66    -20.563    4.064
H    4.66    -10.353    4.064
H    20.874    -15.458    3.694
H    20.874    -5.248    3.694
H    20.874    4.962    3.694
H    -2.134    0.0    7.988
H    -2.134    -20.42    7.988
H    -2.134    -10.21    7.988
H    27.668    -15.315    -0.23
H    27.668    -5.105    -0.23
H    27.668    5.105    -0.23
H    3.866    -2.456    2.376
H    3.866    -22.876    2.376
H    3.866    -12.666    2.376
H    21.668    -17.771    5.382
H    21.668    -7.561    5.382
H    21.668    2.649    5.382
H    -1.244    2.003    6.32
H    -1.244    -18.417    6.32
H    -1.244    -8.207    6.32
H    26.778    -13.312    1.438
H    26.778    -3.102    1.438
H    26.778    7.108    1.438
H    2.372    0.089    2.853
H    2.372    -20.331    2.853
H    2.372    -10.121    2.853
H    23.162    -15.226    4.905
H    23.162    -5.016    4.905
H    23.162    5.194    4.905
H    0.109    -0.623    6.734
H    0.109    -21.043    6.734
H    0.109    -10.833    6.734
H    25.425    -15.938    1.024
H    25.425    -5.728    1.024
H    25.425    4.482    1.024
H    1.037    1.734    5.181
H    1.553    -2.284    1.259
H    1.553    -22.704    1.259
H    1.037    -18.686    5.181
H    1.553    -12.494    1.259
H    1.037    -8.476    5.181
H    23.981    -17.599    6.499
H    24.497    -13.581    2.577
H    23.981    -7.389    6.499
H    24.497    -3.371    2.577
H    23.981    2.821    6.499
H    24.497    6.839    2.577
H    0.394    0.312    4.504
H    2.149    -0.835    0.596
H    2.149    -21.255    0.596
H    0.394    -20.108    4.504
H    2.149    -11.045    0.596
H    0.394    -9.898    4.504
H    23.385    -16.15    7.162
H    25.14    -15.003    3.254
H    23.385    -5.94    7.162
H    25.14    -4.793    3.254
H    23.385    4.27    7.162
H    25.14    5.417    3.254
C    12.021    -2.811    4.993
C    9.8    -1.099    8.925
C    13.532    -3.07    5.052
O    14.081    -2.71    6.317
C    8.305    -0.764    8.993
O    7.735    -1.121    10.248
C    14.253    -2.388    3.896
O    15.607    -2.83    3.873
C    7.542    -1.393    7.835
O    6.207    -0.889    7.833
C    13.584    -2.739    2.577
O    14.0    -1.91    1.578
C    8.206    -1.057    6.51
O    7.587    -1.854    5.511
C    12.078    -2.459    2.655
O    11.504    -3.198    3.74
C    9.696    -1.415    6.564
O    10.33    -0.742    7.668
C    11.36    -2.8    1.37
O    9.977    -2.489    1.364
C    10.429    -1.029    5.283
O    11.8    -1.448    5.274
H    11.555    -3.386    5.738
H    10.31    -0.577    9.679
H    13.673    -4.104    4.937
H    8.215    0.278    8.895
H    14.228    -1.348    4.034
H    7.52    -2.436    7.958
H    13.751    -3.749    2.346
H    8.084    -0.038    6.29
H    11.93    -1.433    2.823
H    9.787    -2.451    6.704
H    10.38    0.012    5.15
H    11.447    -3.897    1.229
H    9.94    -1.486    4.474
H    11.836    -2.38    0.566
C    20.635    -2.209    5.19
C    18.582    -0.299    9.122
C    22.115    -2.606    5.249
O    22.695    -2.298    6.514
C    17.124    0.172    9.19
O    16.523    -0.131    10.445
C    22.896    -1.994    4.093
O    24.204    -2.559    4.07
C    16.3    -0.384    8.032
O    15.023    0.241    8.03
C    22.198    -2.281    2.774
O    22.846    -1.509    1.775
C    16.997    -0.11    6.707
O    16.308    -0.847    5.708
C    20.724    -1.864    2.852
O    20.084    -2.546    3.937
C    18.448    -0.604    6.761
O    19.142    0.008    7.865
C    19.972    -2.197    1.567
O    18.63    -1.7    1.551
C    19.214    -0.288    5.48
O    20.54    -0.832    5.471
H    20.118    -2.738    5.935
H    19.137    0.174    9.877
H    22.16    -3.649    5.135
H    17.13    1.218    9.093
H    22.967    -0.956    4.232
H    16.188    -1.42    8.156
H    22.271    -3.303    2.543
H    16.97    0.916    6.487
H    20.671    -0.829    3.021
H    18.443    -1.645    6.902
H    19.261    0.763    5.348
H    19.963    -3.237    1.426
H    18.685    -0.698    4.671
H    20.49    -1.763    0.764
C    12.021    -23.231    4.993
C    9.8    -21.519    8.925
C    13.532    -23.49    5.052
O    14.081    -23.13    6.317
C    8.305    -21.184    8.993
O    7.735    -21.541    10.248
C    14.253    -22.808    3.896
O    15.607    -23.25    3.873
C    7.542    -21.813    7.835
O    6.207    -21.309    7.833
C    13.584    -23.159    2.577
O    14.0    -22.33    1.578
C    8.206    -21.477    6.51
O    7.587    -22.274    5.511
C    12.078    -22.879    2.655
O    11.504    -23.618    3.74
C    9.696    -21.835    6.564
O    10.33    -21.162    7.668
C    11.36    -23.22    1.37
O    9.977    -22.909    1.364
C    10.429    -21.449    5.283
O    11.8    -21.868    5.274
H    11.555    -23.806    5.738
H    10.31    -20.997    9.679
H    13.673    -24.524    4.937
H    8.215    -20.142    8.895
H    14.228    -21.768    4.034
H    7.52    -22.856    7.958
H    13.751    -24.169    2.346
H    8.084    -20.458    6.29
H    11.93    -21.853    2.823
H    9.787    -22.871    6.704
H    11.447    -24.317    1.229
H    10.38    -20.408    5.15
H    11.836    -22.8    0.566
H    9.94    -21.906    4.474
C    20.635    -22.629    5.19
C    18.582    -20.719    9.122
C    22.115    -23.026    5.249
O    22.695    -22.718    6.514
C    17.124    -20.248    9.19
O    16.523    -20.551    10.445
C    22.896    -22.414    4.093
O    24.204    -22.979    4.07
C    16.3    -20.804    8.032
O    15.023    -20.179    8.03
C    22.198    -22.701    2.774
O    22.846    -21.929    1.775
C    16.997    -20.53    6.707
O    16.308    -21.267    5.708
C    20.724    -22.284    2.852
O    20.084    -22.966    3.937
C    18.448    -21.024    6.761
O    19.142    -20.412    7.865
C    19.972    -22.617    1.567
O    18.63    -22.12    1.551
C    19.214    -20.708    5.48
O    20.54    -21.252    5.471
H    20.118    -23.158    5.935
H    19.137    -20.246    9.877
H    22.16    -24.069    5.135
H    17.13    -19.202    9.093
H    22.967    -21.376    4.232
H    16.188    -21.84    8.156
H    22.271    -23.723    2.543
H    16.97    -19.504    6.487
H    20.671    -21.249    3.021
H    18.443    -22.065    6.902
H    19.963    -23.657    1.426
H    19.261    -19.657    5.348
H    20.49    -22.183    0.764
H    18.685    -21.118    4.671
C    12.021    -13.021    4.993
C    9.8    -11.309    8.925
C    13.532    -13.28    5.052
O    14.081    -12.92    6.317
C    8.305    -10.974    8.993
O    7.735    -11.331    10.248
C    14.253    -12.598    3.896
O    15.607    -13.04    3.873
C    7.542    -11.603    7.835
O    6.207    -11.099    7.833
C    13.584    -12.949    2.577
O    14.0    -12.12    1.578
C    8.206    -11.267    6.51
O    7.587    -12.064    5.511
C    12.078    -12.669    2.655
O    11.504    -13.408    3.74
C    9.696    -11.625    6.564
O    10.33    -10.952    7.668
C    11.36    -13.01    1.37
O    9.977    -12.699    1.364
C    10.429    -11.239    5.283
O    11.8    -11.658    5.274
H    11.555    -13.596    5.738
H    10.31    -10.787    9.679
H    13.673    -14.314    4.937
H    8.215    -9.932    8.895
H    14.228    -11.558    4.034
H    7.52    -12.646    7.958
H    13.751    -13.959    2.346
H    8.084    -10.248    6.29
H    11.93    -11.643    2.823
H    9.787    -12.661    6.704
H    11.447    -14.107    1.229
H    10.38    -10.198    5.15
H    11.836    -12.59    0.566
H    9.94    -11.696    4.474
C    20.635    -12.419    5.19
C    18.582    -10.509    9.122
C    22.115    -12.816    5.249
O    22.695    -12.508    6.514
C    17.124    -10.038    9.19
O    16.523    -10.341    10.445
C    22.896    -12.204    4.093
O    24.204    -12.769    4.07
C    16.3    -10.594    8.032
O    15.023    -9.969    8.03
C    22.198    -12.491    2.774
O    22.846    -11.719    1.775
C    16.997    -10.32    6.707
O    16.308    -11.057    5.708
C    20.724    -12.074    2.852
O    20.084    -12.756    3.937
C    18.448    -10.814    6.761
O    19.142    -10.202    7.865
C    19.972    -12.407    1.567
O    18.63    -11.91    1.551
C    19.214    -10.498    5.48
O    20.54    -11.042    5.471
H    20.118    -12.948    5.935
H    19.137    -10.036    9.877
H    22.16    -13.859    5.135
H    17.13    -8.992    9.093
H    22.967    -11.166    4.232
H    16.188    -11.63    8.156
H    22.271    -13.513    2.543
H    16.97    -9.294    6.487
H    20.671    -11.039    3.021
H    18.443    -11.855    6.902
H    19.963    -13.447    1.426
H    19.261    -9.447    5.348
H    20.49    -11.973    0.764
H    18.685    -10.908    4.671
C    13.513    -18.126    2.765
C    15.734    -16.414    -1.167
C    12.002    -18.385    2.706
O    11.453    -18.025    1.441
C    17.229    -16.079    -1.235
O    17.799    -16.436    -2.49
C    11.281    -17.703    3.862
O    9.927    -18.145    3.885
C    17.992    -16.708    -0.077
O    19.327    -16.204    -0.075
C    11.95    -18.054    5.181
O    11.534    -17.225    6.18
C    17.328    -16.372    1.248
O    17.947    -17.169    2.247
C    13.456    -17.774    5.103
O    14.03    -18.513    4.018
C    15.838    -16.73    1.194
O    15.204    -16.057    0.09
C    14.174    -18.115    6.388
O    15.557    -17.804    6.394
C    15.105    -16.344    2.475
O    13.734    -16.763    2.484
H    13.979    -18.701    2.02
H    15.224    -15.892    -1.921
H    11.861    -19.419    2.821
H    17.319    -15.037    -1.137
H    11.306    -16.663    3.724
H    18.014    -17.751    -0.2
H    11.783    -19.064    5.412
H    17.45    -15.353    1.468
H    13.604    -16.748    4.935
H    15.747    -17.766    1.054
H    14.087    -19.212    6.529
H    15.154    -15.303    2.608
H    13.698    -17.695    7.192
H    15.594    -16.801    3.284
C    4.899    -17.524    2.568
C    6.952    -15.614    -1.364
C    3.419    -17.921    2.509
O    2.839    -17.613    1.244
C    8.41    -15.143    -1.432
O    9.011    -15.446    -2.687
C    2.638    -17.309    3.665
O    1.33    -17.874    3.688
C    9.234    -15.699    -0.274
O    10.511    -15.074    -0.272
C    3.336    -17.596    4.984
O    2.688    -16.824    5.983
C    8.537    -15.425    1.051
O    9.226    -16.162    2.05
C    4.81    -17.179    4.906
O    5.45    -17.861    3.821
C    7.086    -15.919    0.997
O    6.392    -15.307    -0.107
C    5.562    -17.512    6.191
O    6.904    -17.015    6.207
C    6.32    -15.603    2.278
O    4.994    -16.147    2.287
H    5.416    -18.053    1.823
H    6.397    -15.141    -2.119
H    3.374    -18.964    2.623
H    8.404    -14.097    -1.335
H    2.567    -16.271    3.526
H    9.346    -16.735    -0.398
H    3.263    -18.618    5.215
H    8.564    -14.399    1.271
H    4.863    -16.144    4.737
H    7.091    -16.96    0.856
H    5.571    -18.552    6.332
H    6.273    -14.552    2.41
H    5.044    -17.078    6.994
H    6.849    -16.013    3.087
C    13.513    -7.916    2.765
C    15.734    -6.204    -1.167
C    12.002    -8.175    2.706
O    11.453    -7.815    1.441
C    17.229    -5.869    -1.235
O    17.799    -6.226    -2.49
C    11.281    -7.493    3.862
O    9.927    -7.935    3.885
C    17.992    -6.498    -0.077
O    19.327    -5.994    -0.075
C    11.95    -7.844    5.181
O    11.534    -7.015    6.18
C    17.328    -6.162    1.248
O    17.947    -6.959    2.247
C    13.456    -7.564    5.103
O    14.03    -8.303    4.018
C    15.838    -6.52    1.194
O    15.204    -5.847    0.09
C    14.174    -7.905    6.388
O    15.557    -7.594    6.394
C    15.105    -6.134    2.475
O    13.734    -6.553    2.484
H    13.979    -8.491    2.02
H    15.224    -5.682    -1.921
H    11.861    -9.209    2.821
H    17.319    -4.827    -1.137
H    11.306    -6.453    3.724
H    18.014    -7.541    -0.2
H    11.783    -8.854    5.412
H    17.45    -5.143    1.468
H    13.604    -6.538    4.935
H    15.747    -7.556    1.054
H    14.087    -9.002    6.529
H    15.154    -5.093    2.608
H    13.698    -7.485    7.192
H    15.594    -6.591    3.284
C    4.899    -7.314    2.568
C    6.952    -5.404    -1.364
C    3.419    -7.711    2.509
O    2.839    -7.403    1.244
C    8.41    -4.933    -1.432
O    9.011    -5.236    -2.687
C    2.638    -7.099    3.665
O    1.33    -7.664    3.688
C    9.234    -5.489    -0.274
O    10.511    -4.864    -0.272
C    3.336    -7.386    4.984
O    2.688    -6.614    5.983
C    8.537    -5.215    1.051
O    9.226    -5.952    2.05
C    4.81    -6.969    4.906
O    5.45    -7.651    3.821
C    7.086    -5.709    0.997
O    6.392    -5.097    -0.107
C    5.562    -7.302    6.191
O    6.904    -6.805    6.207
C    6.32    -5.393    2.278
O    4.994    -5.937    2.287
H    5.416    -7.843    1.823
H    6.397    -4.931    -2.119
H    3.374    -8.754    2.623
H    8.404    -3.887    -1.335
H    2.567    -6.061    3.526
H    9.346    -6.525    -0.398
H    3.263    -8.408    5.215
H    8.564    -4.189    1.271
H    4.863    -5.934    4.737
H    7.091    -6.75    0.856
H    5.571    -8.342    6.332
H    6.273    -4.342    2.41
H    5.044    -6.868    6.994
H    6.849    -5.803    3.087
C    13.513    2.294    2.765
C    15.734    4.006    -1.167
C    12.002    2.035    2.706
O    11.453    2.395    1.441
C    17.229    4.341    -1.235
O    17.799    3.984    -2.49
C    11.281    2.717    3.862
O    9.927    2.275    3.885
C    17.992    3.712    -0.077
O    19.327    4.216    -0.075
C    11.95    2.366    5.181
O    11.534    3.195    6.18
C    17.328    4.048    1.248
O    17.947    3.251    2.247
C    13.456    2.646    5.103
O    14.03    1.907    4.018
C    15.838    3.69    1.194
O    15.204    4.363    0.09
C    14.174    2.305    6.388
O    15.557    2.616    6.394
C    15.105    4.076    2.475
O    13.734    3.657    2.484
H    13.979    1.719    2.02
H    15.224    4.528    -1.921
H    11.861    1.001    2.821
H    17.319    5.383    -1.137
H    11.306    3.757    3.724
H    18.014    2.669    -0.2
H    11.783    1.356    5.412
H    17.45    5.067    1.468
H    13.604    3.672    4.935
H    15.747    2.654    1.054
H    14.087    1.208    6.529
H    15.154    5.117    2.608
H    13.698    2.725    7.192
H    15.594    3.619    3.284
C    4.899    2.896    2.568
C    6.952    4.806    -1.364
C    3.419    2.499    2.509
O    2.839    2.807    1.244
C    8.41    5.277    -1.432
O    9.011    4.974    -2.687
C    2.638    3.111    3.665
O    1.33    2.546    3.688
C    9.234    4.721    -0.274
O    10.511    5.346    -0.272
C    3.336    2.824    4.984
O    2.688    3.596    5.983
C    8.537    4.995    1.051
O    9.226    4.258    2.05
C    4.81    3.241    4.906
O    5.45    2.559    3.821
C    7.086    4.501    0.997
O    6.392    5.113    -0.107
C    5.562    2.908    6.191
O    6.904    3.405    6.207
C    6.32    4.817    2.278
O    4.994    4.273    2.287
H    5.416    2.367    1.823
H    6.397    5.279    -2.119
H    3.374    1.456    2.623
H    8.404    6.323    -1.335
H    2.567    4.149    3.526
H    9.346    3.685    -0.398
H    3.263    1.802    5.215
H    8.564    6.021    1.271
H    4.863    4.276    4.737
H    7.091    3.46    0.856
H    5.571    1.868    6.332
H    6.273    5.868    2.41
H    5.044    3.342    6.994
H    6.849    4.407    3.087
H    0.2937    -0.365    9.1086
H    0.2937    -20.785    9.1086
H    0.2937    -10.575    9.1086
H    25.2403    -15.68    -1.3506
H    25.2403    -5.47    -1.3506
H    25.2403    4.74    -1.3506
H    5.2378    -1.7755    6.3479
H    5.2378    -22.1955    6.3479
H    5.2378    -11.9855    6.3479
H    20.2962    -17.0905    1.4101
H    20.2962    -6.8805    1.4101
H    20.2962    3.3295    1.4101
H    -2.6332    1.3299    10.2811
H    -2.6332    -19.0901    10.2811
H    -2.6332    -8.8801    10.2811
H    28.1672    -13.9851    -2.5231
H    28.1672    -3.7751    -2.5231
H    28.1672    6.4349    -2.5231
H    6.3395    -1.4455    3.1772
H    6.3395    -21.8655    3.1772
H    6.3395    -11.6555    3.1772
H    19.1945    -16.7605    4.5808
H    19.1945    -6.5505    4.5808
H    19.1945    3.6595    4.5808
H    -3.7597    1.0988    7.1358
H    -3.7597    -19.3212    7.1358
H    -3.7597    -9.1112    7.1358
H    29.2937    -14.2162    0.6222
H    29.2937    -4.0062    0.6222
H    29.2937    6.2038    0.6222
H    4.3422    -0.8777    1.8205
H    4.3422    -21.2977    1.8205
H    4.3422    -11.0877    1.8205
H    21.1918    -16.1927    5.9375
H    21.1918    -5.9827    5.9375
H    21.1918    4.2273    5.9375
H    -1.5664    0.4052    4.6882
H    -1.5664    -20.0148    4.6882
H    -1.5664    -9.8048    4.6882
H    27.1004    -14.9098    3.0698
H    27.1004    -4.6998    3.0698
H    27.1004    5.5102    3.0698
H    -0.4092    -0.9132    0.5456
H    -0.4092    -21.3332    0.5456
H    -0.4092    -11.1232    0.5456
H    25.9432    -16.2282    7.2124
H    25.9432    -6.0182    7.2124
H    25.9432    4.1918    7.2124
H    9.9338    -2.1698    9.0783
H    15.0249    -2.8848    6.3181
H    6.8016    -0.8965    10.2515
H    16.0704    -2.4055    3.1473
H    5.7178    -1.2804    7.1056
H    13.5637    -2.1524    0.7579
H    7.9852    -1.6651    4.6581
H    9.597    -2.7347    0.5174
H    18.6168    -1.3776    9.2751
H    23.6188    -2.5591    6.5151
H    15.6143    0.1785    10.4482
H    24.7044    -2.1792    3.3441
H    14.4985    -0.104    7.3037
H    22.4276    -1.6677    0.9257
H    16.723    -0.6967    4.8555
H    18.2095    -1.9392    0.7218
H    9.9338    -22.5898    9.0783
H    15.0249    -23.3048    6.3181
H    6.8016    -21.3165    10.2515
H    16.0704    -22.8255    3.1473
H    5.7178    -21.7004    7.1056
H    13.5637    -22.5724    0.7579
H    7.9852    -22.0851    4.6581
H    9.597    -23.1547    0.5174
H    18.6168    -21.7976    9.2751
H    23.6188    -22.9791    6.5151
H    15.6143    -20.2415    10.4482
H    24.7044    -22.5992    3.3441
H    14.4985    -20.524    7.3037
H    22.4276    -22.0877    0.9257
H    16.723    -21.1167    4.8555
H    18.2095    -22.3592    0.7218
H    9.9338    -12.3798    9.0783
H    15.0249    -13.0948    6.3181
H    6.8016    -11.1065    10.2515
H    16.0704    -12.6155    3.1473
H    5.7178    -11.4904    7.1056
H    13.5637    -12.3624    0.7579
H    7.9852    -11.8751    4.6581
H    9.597    -12.9447    0.5174
H    18.6168    -11.5876    9.2751
H    23.6188    -12.7691    6.5151
H    15.6143    -10.0315    10.4482
H    24.7044    -12.3892    3.3441
H    14.4985    -10.314    7.3037
H    22.4276    -11.8777    0.9257
H    16.723    -10.9067    4.8555
H    18.2095    -12.1492    0.7218
H    15.6002    -17.4848    -1.3203
H    10.5091    -18.1998    1.4399
H    18.7324    -16.2115    -2.4935
H    9.4636    -17.7205    4.6107
H    19.8162    -16.5954    0.6524
H    11.9703    -17.4674    7.0001
H    17.5488    -16.9801    3.0999
H    15.937    -18.0497    7.2406
H    6.9172    -16.6926    -1.5171
H    1.9152    -17.8741    1.2429
H    9.9197    -15.1365    -2.6902
H    0.8296    -17.4942    4.4139
H    11.0355    -15.419    0.4543
H    3.1064    -16.9827    6.8323
H    8.811    -16.0117    2.9025
H    7.3245    -17.2542    7.0362
H    15.6002    -7.2748    -1.3203
H    10.5091    -7.9898    1.4399
H    18.7324    -6.0015    -2.4935
H    9.4636    -7.5105    4.6107
H    19.8162    -6.3854    0.6524
H    11.9703    -7.2574    7.0001
H    17.5488    -6.7701    3.0999
H    15.937    -7.8397    7.2406
H    6.9172    -6.4826    -1.5171
H    1.9152    -7.6641    1.2429
H    9.9197    -4.9265    -2.6902
H    0.8296    -7.2842    4.4139
H    11.0355    -5.209    0.4543
H    3.1064    -6.7727    6.8323
H    8.811    -5.8017    2.9025
H    7.3245    -7.0442    7.0362
H    15.6002    2.9352    -1.3203
H    10.5091    2.2202    1.4399
H    18.7324    4.2085    -2.4935
H    9.4636    2.6995    4.6107
H    19.8162    3.8246    0.6524
H    11.9703    2.9526    7.0001
H    17.5488    3.4399    3.0999
H    15.937    2.3703    7.2406
H    6.9172    3.7274    -1.5171
H    1.9152    2.5459    1.2429
H    9.9197    5.2835    -2.6902
H    0.8296    2.9258    4.4139
H    11.0355    5.001    0.4543
H    3.1064    3.4373    6.8323
H    8.811    4.4083    2.9025
H    7.3245    3.1658    7.0362
