435

H    5.745    2.7    4.867
C    6.636    3.146    4.784
O    7.366    2.946    5.997
C    6.438    4.634    4.524
H    7.319    5.103    4.583
O    5.571    5.185    5.517
C    5.837    4.853    3.144
H    5.784    5.829    2.933
O    4.509    4.344    3.115
C    6.67    4.148    2.081
H    7.59    4.54    2.063
O    6.014    4.264    0.862
C    6.744    4.064    -0.351
H    7.635    4.51    -0.268
C    6.942    2.576    -0.611
H    6.061    2.107    -0.552
O    7.809    2.025    0.382
C    7.543    2.357    -1.991
H    7.596    1.381    -2.202
O    8.871    2.866    -2.02
C    6.71    3.062    -3.054
H    5.79    2.67    -3.072
O    7.366    2.946    -4.273
C    6.636    3.146    -5.486
H    5.745    2.7    -5.403
C    6.438    4.634    -5.746
H    7.319    5.103    -5.687
O    5.571    5.185    -4.753
C    5.837    4.853    -7.126
H    5.784    5.829    -7.337
O    4.509    4.344    -7.155
C    6.67    4.148    -8.189
H    7.59    4.54    -8.207
O    6.014    4.264    -9.408
C    6.744    4.064    -10.621
H    7.635    4.51    -10.538
C    6.942    2.576    -10.881
H    6.061    2.107    -10.822
O    7.809    2.025    -9.888
C    7.543    2.357    -12.261
H    7.596    1.381    -12.472
O    8.871    2.866    -12.29
C    6.71    3.062    -13.324
H    5.79    2.67    -13.342
O    7.366    2.946    -14.543
O    6.63    4.455    -13.015
C    5.963    4.698    -11.767
H    5.042    4.309    -11.8
C    5.831    6.2    -11.624
H    4.991    6.415    -11.125
H    6.618    6.557    -11.121
O    5.777    6.849    -12.893
O    6.75    2.755    -7.88
C    7.417    2.512    -6.632
H    8.338    2.901    -6.665
C    7.549    1.01    -6.489
H    8.389    0.795    -5.99
H    6.762    0.653    -5.986
O    7.603    0.361    -7.758
O    6.63    4.455    -2.745
C    5.963    4.698    -1.497
H    5.042    4.309    -1.53
C    5.831    6.2    -1.354
H    4.991    6.415    -0.855
H    6.618    6.557    -0.851
O    5.777    6.849    -2.623
O    6.75    2.755    2.39
C    7.417    2.512    3.638
H    8.338    2.901    3.605
C    7.549    1.01    3.781
H    8.389    0.795    4.28
H    6.762    0.653    4.284
O    7.603    0.361    2.512
O    1.317    -3.244    2.623
C    1.371    -2.595    1.354
H    2.158    -2.952    0.851
H    0.531    -2.81    0.855
C    1.503    -1.093    1.497
H    0.582    -0.704    1.53
O    2.17    -0.85    2.745
C    2.25    0.543    3.054
H    1.33    0.935    3.072
O    2.906    0.659    4.273
C    2.176    0.459    5.486
C    2.957    1.093    6.632
C    3.089    2.595    6.489
O    3.143    3.244    7.758
H    2.302    2.952    5.986
H    3.929    2.81    5.99
H    3.878    0.704    6.665
O    2.29    0.85    7.88
C    2.21    -0.543    8.189
H    3.13    -0.935    8.207
O    1.554    -0.659    9.408
C    2.284    -0.459    10.621
C    1.503    -1.093    11.767
C    1.371    -2.595    11.624
O    1.317    -3.244    12.893
H    2.158    -2.952    11.121
H    0.531    -2.81    11.125
H    0.582    -0.704    11.8
O    2.17    -0.85    13.015
C    2.25    0.543    13.324
H    1.33    0.935    13.342
O    2.906    0.659    14.543
C    2.176    0.459    15.756
C    2.957    1.093    16.902
C    3.089    2.595    16.759
O    3.143    3.244    18.028
H    2.302    2.952    16.256
H    3.929    2.81    16.26
H    3.878    0.704    16.935
O    2.29    0.85    18.15
C    2.21    -0.543    18.459
O    1.554    -0.659    19.678
H    3.13    -0.935    18.477
C    1.377    -1.248    17.396
O    0.049    -0.739    17.425
H    1.324    -2.224    17.607
C    1.978    -1.029    16.016
O    1.111    -1.58    15.023
H    2.859    -1.498    15.957
H    1.285    0.905    15.673
C    3.083    1.248    12.261
O    4.411    0.739    12.29
H    3.136    2.224    12.472
C    2.482    1.029    10.881
O    3.349    1.58    9.888
H    1.601    1.498    10.822
H    3.175    -0.905    10.538
C    1.377    -1.248    7.126
O    0.049    -0.739    7.155
H    1.324    -2.224    7.337
C    1.978    -1.029    5.746
O    1.111    -1.58    4.753
H    2.859    -1.498    5.687
H    1.285    0.905    5.403
C    3.083    1.248    1.991
O    4.411    0.739    2.02
H    3.136    2.224    2.202
C    2.482    1.029    0.611
O    3.349    1.58    -0.382
H    1.601    1.498    0.552
C    2.284    -0.459    0.351
O    1.554    -0.659    -0.862
H    3.175    -0.905    0.268
H    12.095    6.305    0.268
C    11.204    6.751    0.351
O    10.474    6.551    -0.862
C    11.402    8.239    0.611
H    10.521    8.708    0.552
O    12.269    8.79    -0.382
C    12.003    8.458    1.991
H    12.056    9.434    2.202
O    13.331    7.949    2.02
C    11.17    7.753    3.054
H    10.25    8.145    3.072
O    11.826    7.869    4.273
C    11.096    7.669    5.486
H    10.205    8.115    5.403
C    10.898    6.181    5.746
H    11.779    5.712    5.687
O    10.031    5.63    4.753
C    10.297    5.962    7.126
H    10.244    4.986    7.337
O    8.969    6.471    7.155
C    11.13    6.667    8.189
H    12.05    6.275    8.207
O    10.474    6.551    9.408
C    11.204    6.751    10.621
H    12.095    6.305    10.538
C    11.402    8.239    10.881
H    10.521    8.708    10.822
O    12.269    8.79    9.888
C    12.003    8.458    12.261
H    12.056    9.434    12.472
O    13.331    7.949    12.29
C    11.17    7.753    13.324
H    10.25    8.145    13.342
O    11.826    7.869    14.543
C    11.096    7.669    15.756
H    10.205    8.115    15.673
C    10.898    6.181    16.016
H    11.779    5.712    15.957
O    10.031    5.63    15.023
C    10.297    5.962    17.396
H    10.244    4.986    17.607
O    8.969    6.471    17.425
C    11.13    6.667    18.459
H    12.05    6.275    18.477
O    10.474    6.551    19.678
O    11.21    8.06    18.15
C    11.877    8.303    16.902
H    12.798    7.914    16.935
C    12.009    9.805    16.759
H    12.849    10.02    16.26
H    11.222    10.162    16.256
O    12.063    10.454    18.028
O    11.09    6.36    13.015
C    10.423    6.117    11.767
H    9.502    6.506    11.8
C    10.291    4.615    11.624
H    9.451    4.4    11.125
H    11.078    4.258    11.121
O    10.237    3.966    12.893
O    11.21    8.06    7.88
C    11.877    8.303    6.632
H    12.798    7.914    6.665
C    12.009    9.805    6.489
H    12.849    10.02    5.99
H    11.222    10.162    5.986
O    12.063    10.454    7.758
O    11.09    6.36    2.745
C    10.423    6.117    1.497
H    9.502    6.506    1.53
C    10.291    4.615    1.354
H    9.451    4.4    0.855
H    11.078    4.258    0.851
O    10.237    3.966    2.623
H    3.175    6.305    0.268
C    2.284    6.751    0.351
O    1.554    6.551    -0.862
C    2.482    8.239    0.611
H    1.601    8.708    0.552
O    3.349    8.79    -0.382
C    3.083    8.458    1.991
H    3.136    9.434    2.202
O    4.411    7.949    2.02
C    2.25    7.753    3.054
H    1.33    8.145    3.072
O    2.906    7.869    4.273
C    2.176    7.669    5.486
H    1.285    8.115    5.403
C    1.978    6.181    5.746
H    2.859    5.712    5.687
O    1.111    5.63    4.753
C    1.377    5.962    7.126
H    1.324    4.986    7.337
O    0.049    6.471    7.155
C    2.21    6.667    8.189
H    3.13    6.275    8.207
O    1.554    6.551    9.408
C    2.284    6.751    10.621
H    3.175    6.305    10.538
C    2.482    8.239    10.881
H    1.601    8.708    10.822
O    3.349    8.79    9.888
C    3.083    8.458    12.261
H    3.136    9.434    12.472
O    4.411    7.949    12.29
C    2.25    7.753    13.324
H    1.33    8.145    13.342
O    2.906    7.869    14.543
C    2.176    7.669    15.756
H    1.285    8.115    15.673
C    1.978    6.181    16.016
H    2.859    5.712    15.957
O    1.111    5.63    15.023
C    1.377    5.962    17.396
H    1.324    4.986    17.607
O    0.049    6.471    17.425
C    2.21    6.667    18.459
H    3.13    6.275    18.477
O    1.554    6.551    19.678
O    2.29    8.06    18.15
C    2.957    8.303    16.902
H    3.878    7.914    16.935
C    3.089    9.805    16.759
H    3.929    10.02    16.26
H    2.302    10.162    16.256
O    3.143    10.454    18.028
O    2.17    6.36    13.015
C    1.503    6.117    11.767
H    0.582    6.506    11.8
C    1.371    4.615    11.624
H    0.531    4.4    11.125
H    2.158    4.258    11.121
O    1.317    3.966    12.893
O    2.29    8.06    7.88
C    2.957    8.303    6.632
H    3.878    7.914    6.665
C    3.089    9.805    6.489
H    3.929    10.02    5.99
H    2.302    10.162    5.986
O    3.143    10.454    7.758
O    2.17    6.36    2.745
C    1.503    6.117    1.497
H    0.582    6.506    1.53
C    1.371    4.615    1.354
H    0.531    4.4    0.855
H    2.158    4.258    0.851
O    1.317    3.966    2.623
H    12.095    -0.905    0.268
C    11.204    -0.459    0.351
O    10.474    -0.659    -0.862
C    11.402    1.029    0.611
H    10.521    1.498    0.552
O    12.269    1.58    -0.382
C    12.003    1.248    1.991
H    12.056    2.224    2.202
O    13.331    0.739    2.02
C    11.17    0.543    3.054
H    10.25    0.935    3.072
O    11.826    0.659    4.273
C    11.096    0.459    5.486
H    10.205    0.905    5.403
C    10.898    -1.029    5.746
H    11.779    -1.498    5.687
O    10.031    -1.58    4.753
C    10.297    -1.248    7.126
H    10.244    -2.224    7.337
O    8.969    -0.739    7.155
C    11.13    -0.543    8.189
H    12.05    -0.935    8.207
O    10.474    -0.659    9.408
C    11.204    -0.459    10.621
H    12.095    -0.905    10.538
C    11.402    1.029    10.881
H    10.521    1.498    10.822
O    12.269    1.58    9.888
C    12.003    1.248    12.261
H    12.056    2.224    12.472
O    13.331    0.739    12.29
C    11.17    0.543    13.324
H    10.25    0.935    13.342
O    11.826    0.659    14.543
C    11.096    0.459    15.756
H    10.205    0.905    15.673
C    10.898    -1.029    16.016
H    11.779    -1.498    15.957
O    10.031    -1.58    15.023
C    10.297    -1.248    17.396
H    10.244    -2.224    17.607
O    8.969    -0.739    17.425
C    11.13    -0.543    18.459
H    12.05    -0.935    18.477
O    10.474    -0.659    19.678
O    11.21    0.85    18.15
C    11.877    1.093    16.902
H    12.798    0.704    16.935
C    12.009    2.595    16.759
H    12.849    2.81    16.26
H    11.222    2.952    16.256
O    12.063    3.244    18.028
O    11.09    -0.85    13.015
C    10.423    -1.093    11.767
H    9.502    -0.704    11.8
C    10.291    -2.595    11.624
H    9.451    -2.81    11.125
H    11.078    -2.952    11.121
O    10.237    -3.244    12.893
O    11.21    0.85    7.88
C    11.877    1.093    6.632
H    12.798    0.704    6.665
C    12.009    2.595    6.489
H    12.849    2.81    5.99
H    11.222    2.952    5.986
O    12.063    3.244    7.758
O    11.09    -0.85    2.745
C    10.423    -1.093    1.497
H    9.502    -0.704    1.53
C    10.291    -2.595    1.354
H    9.451    -2.81    0.855
H    11.078    -2.952    0.851
O    10.237    -3.244    2.623
H    8.2242    3.3706    5.9283
H    5.4481    6.1225    5.3506
H    4.1315    4.4831    2.2434
H    7.9319    1.0875    0.2156
H    9.2485    2.7269    -2.8916
H    5.4481    6.1225    -4.9194
H    4.1315    4.4831    -8.0266
H    7.9319    1.0875    -10.0544
H    9.2485    2.7269    -13.1616
H    6.8538    3.3857    -15.2256
H    5.6936    7.7968    -12.7649
H    7.6864    -0.5868    -7.6299
H    5.6936    7.7968    -2.4949
H    7.6864    -0.5868    2.6401
H    0.5658    -2.9128    3.1206
H    3.2264    4.1918    7.6299
H    1.2336    -4.1918    12.7649
H    3.2264    4.1918    17.8999
H    1.4828    -1.5861    19.9166
H    -0.4785    -1.1815    16.756
H    0.9881    -2.5175    15.1894
H    4.9385    1.1815    11.621
H    3.4719    2.5175    10.0544
H    -0.4785    -1.1815    6.486
H    0.9881    -2.5175    4.9194
H    4.9385    1.1815    1.351
H    2.9685    1.4411    -1.2524
H    2.0342    -0.2645    -1.5937
H    9.6158    6.9756    -0.7933
H    12.3919    9.7275    -0.2156
H    13.7085    8.0881    2.8916
H    9.9081    4.6925    4.9194
H    8.5915    6.3319    8.0266
H    12.3919    9.7275    10.0544
H    13.7085    8.0881    13.1616
H    9.9081    4.6925    15.1894
H    8.5915    6.3319    18.2966
H    10.9862    6.9907    20.3606
H    12.1464    11.4018    17.8999
H    10.1536    3.0182    12.7649
H    12.1464    11.4018    7.6299
H    10.1536    3.0182    2.4949
H    0.6958    6.9756    -0.7933
H    3.4719    9.7275    -0.2156
H    4.7885    8.0881    2.8916
H    0.9881    4.6925    4.9194
H    -0.3285    6.3319    8.0266
H    3.4719    9.7275    10.0544
H    4.7885    8.0881    13.1616
H    0.9881    4.6925    15.1894
H    -0.3285    6.3319    18.2966
H    2.0662    6.9907    20.3606
H    3.2264    11.4018    17.8999
H    1.2336    3.0182    12.7649
H    3.2264    11.4018    7.6299
H    1.2336    3.0182    2.4949
H    9.6158    -0.2344    -0.7933
H    12.3919    2.5175    -0.2156
H    13.7085    0.8781    2.8916
H    9.9081    -2.5175    4.9194
H    8.5915    -0.8781    8.0266
H    12.3919    2.5175    10.0544
H    13.7085    0.8781    13.1616
H    9.9081    -2.5175    15.1894
H    8.5915    -0.8781    18.2966
H    10.9862    -0.2193    20.3606
H    12.1464    4.1918    17.8999
H    10.1536    -4.1918    12.7649
H    12.1464    4.1918    7.6299
H    10.1536    -4.1918    2.4949
