760

C    9.319    -18.924999    1.92
O    9.126    -17.513    2.082
C    8.684    -19.452999    0.644
O    7.435    -20.080999    0.958
C    8.404    -18.257    -0.254
O    9.038    -18.455    -1.522
C    6.912    -18.231001    -0.439
C    6.337    -19.393999    0.336
N    5.372    -18.924    1.348
C    4.025    -19.082001    1.066
O    3.675    -19.597    0.006
N    3.118    -18.655001    1.987
C    3.518    -18.096001    3.137
N    2.603    -17.688    4.017
C    4.908    -17.931    3.432
C    5.797    -18.357    2.514
H    9.984    -17.094    1.981
H    5.236    -17.476    4.366
H    6.864    -18.247    2.704
H    5.832    -20.07    -0.352
H    6.516    -17.287001    -0.01
H    8.75    -17.334999    0.213
H    9.352    -20.157    0.147
H    1.621    -17.802    3.814
H    8.851    -19.448    2.743
H    2.894    -17.264999    4.887
H    6.683    -18.372999    -1.516
H    10.399    -19.131001    1.917
P    9.127    -17.25    -2.586
C    7.69    -18.093    -4.636
O    7.74    -17.389    -3.392
C    6.423    -17.761    -5.416
O    5.278    -17.990999    -4.585
C    6.473    -16.278999    -5.758
O    6.341    -16.112    -7.173
C    5.287    -15.665    -5.068
C    4.561    -16.771    -4.339
N    1.454    -15.769    -0.393
C    1.221    -15.998    -1.68
N    2.082    -16.252001    -2.653
C    3.343    -16.259001    -2.172
C    3.734    -16.042    -0.88
C    2.721    -15.782    0.057
N    2.962    -15.553    1.348
N    5.119    -16.129    -0.769
C    5.509    -16.393    -1.984
N    4.49    -16.488001    -2.893
O    10.237    -17.541    -3.522
O    9.105    -15.971    -1.842
H    0.173    -15.972    -1.977
H    6.559    -16.525999    -2.245
H    3.55    -16.861    -4.735
H    5.65    -14.926    -4.324
H    7.401    -15.833    -5.399
H    6.364    -18.361    -6.324
H    7.718    -19.165001    -4.439
H    2.195    -15.371    1.98
H    3.91    -15.561    1.693
H    4.608    -15.24    -5.837
H    8.559    -17.819    -5.235
P    5.833    -14.712    -7.786
C    3.298    -15.418    -7.573
O    4.362    -14.563    -7.15
C    1.962    -14.683    -7.592
O    1.358    -14.759    -6.294
C    2.25    -13.221    -7.898
O    1.498    -12.817    -9.046
C    1.777    -12.455    -6.694
C    1.224    -13.456    -5.706
N    0.768    -12.845    -0.642
C    -0.125    -12.87    -1.625
N    0.067    -13.034    -2.924
C    1.381    -13.189    -3.188
C    2.409    -13.186    -2.286
C    2.07    -13.002    -0.936
N    2.971    -12.978    0.046
N    3.627    -13.375    -2.934
C    3.294    -13.483    -4.189
N    1.948    -13.381    -4.424
O    5.691    -14.873    -9.25
O    6.686    -13.632    -7.241
H    -1.162    -12.736    -1.318
H    4.029    -13.642    -4.977
H    0.169    -13.246    -5.533
H    2.647    -11.942    -6.233
H    3.317    -13.065    -8.059
H    1.301    -15.109    -8.347
H    3.229    -16.264999    -6.89
H    2.674    -12.843    1.002
H    3.952    -13.096    -0.166
H    0.958    -11.772    -7.005
H    3.515    -15.787    -8.575
P    0.97    -11.303    -9.186
C    -1.127    -11.857    -7.68
O    0.083    -11.116    -7.855
C    -2.204    -11.018    -7.0
O    -2.022    -11.072    -5.579
C    -2.012    -9.578    -7.451
O    -3.228    -9.093    -8.026
C    -1.704    -8.801    -6.2
C    -1.717    -9.774    -5.045
N    -0.414    -9.783    -4.354
C    -0.426    -9.757    -2.969
O    -1.495    -9.726    -2.364
N    0.766    -9.765    -2.313
C    1.923    -9.799    -2.988
N    3.073    -9.806    -2.314
C    1.94    -9.826    -4.418
C    0.754    -9.818    -5.058
O    0.069    -11.232    -10.357
O    2.137    -10.396    -9.096
H    2.879    -9.853    -4.971
H    0.728    -9.838    -6.147
H    -2.493    -9.483    -4.338
H    -0.686    -8.367    -6.291
H    -1.189    -9.504    -8.162
H    -3.197    -11.375    -7.272
H    3.067    -9.787    -1.305
H    -0.921    -12.736    -7.069
H    3.951    -9.831    -2.814
H    -2.506    -8.049    -6.042
H    -1.491    -12.179    -8.655
P    -3.662    -7.553    -7.842
C    -5.197    -8.058    -5.753
O    -4.0    -7.469    -6.271
C    -5.737    -7.273    -4.562
O    -4.8    -7.348    -3.479
C    -5.855    -5.818    -4.989
O    -7.197    -5.369    -4.783
C    -4.927    -5.055    -4.086
C    -4.281    -6.05    -3.151
N    -2.813    -6.021    -3.287
C    -2.064    -6.033    -2.122
O    -2.626    -6.066    -1.029
N    -0.707    -6.008    -2.226
C    -0.11    -5.972    -3.425
N    1.221    -5.948    -3.492
C    -0.88    -5.959    -4.631
C    -2.222    -5.985    -4.516
O    -4.915    -7.331    -8.599
O    -2.479    -6.704    -8.108
H    -0.398    -5.93    -5.608
H    -2.841    -5.976    -5.413
H    -4.549    -5.804    -2.124
H    -4.136    -4.582    -4.705
H    -5.562    -5.699    -6.033
H    -6.707    -7.663    -4.255
H    1.77    -5.957    -2.644
H    -4.983    -9.08    -5.44
H    1.681    -5.921    -4.391
H    -5.524    -4.337    -3.486
H    -5.952    -8.076    -6.538
P    -7.497    -3.829    -4.423
C    -7.875    -4.274    -1.847
O    -7.046    -3.735    -2.88
C    -7.538    -3.671    -0.487
O    -6.136    -3.828    -0.232
C    -7.846    -2.183    -0.559
O    -8.763    -1.835    0.482
C    -6.534    -1.487    -0.324
C    -5.484    -2.553    -0.119
N    -0.486    -1.694    -0.829
C    -1.237    -1.756    0.264
N    -2.536    -1.985    0.374
C    -3.084    -2.167    -0.846
C    -2.441    -2.132    -2.052
C    -1.06    -1.879    -2.03
N    -0.311    -1.817    -3.132
N    -3.339    -2.365    -3.091
C    -4.478    -2.531    -2.48
N    -4.405    -2.425    -1.116
O    -8.96    -3.613    -4.491
O    -6.588    -2.98    -5.224
H    -0.709    -1.597    1.204
H    -5.404    -2.735    -3.016
H    -5.06    -2.453    0.88
H    -6.275    -0.9    -1.229
H    -8.251    -1.92    -1.537
H    -8.126    -4.146    0.298
H    -7.733    -5.354    -1.804
H    0.679    -1.632    -3.06
H    -0.735    -1.955    -4.038
H    -6.613    -0.881    0.603
H    -8.918    -4.061    -2.081
P    -8.721    -0.372    1.153
C    -7.217    -0.927    3.251
O    -7.312    -0.383    1.932
C    -6.13    -0.233    4.066
O    -4.862    -0.417    3.423
C    -6.448    1.255    4.075
O    -6.533    1.716    5.426
C    -5.286    1.92    3.39
C    -4.312    0.837    2.99
N    -4.095    0.84    1.532
C    -2.79    0.777    1.083
O    -1.835    0.721    1.855
N    -2.619    0.781    -0.289
C    -3.628    0.841    -1.235
O    -3.363    0.838    -2.435
C    -4.958    0.904    -0.673
C    -5.15    0.902    0.662
C    -6.164    0.974    -1.603
O    -9.805    -0.292    2.157
O    -8.643    0.632    0.069
H    -1.671    0.735    -0.633
H    -6.165    0.95    1.056
H    -3.36    1.005    3.493
H    -5.654    2.425    2.473
H    -7.376    1.454    3.538
H    -6.104    -0.625    5.083
H    -6.986    -1.99    3.182
H    -5.93    1.615    -2.454
H    -7.017    1.385    -1.062
H    -6.407    -0.027    -1.96
H    -4.787    2.599    4.114
H    -8.174    -0.803    3.757
P    -6.456    3.289    5.76
C    -4.151    2.914    6.992
O    -4.874    3.536    5.927
C    -2.723    3.442    7.084
O    -2.07    3.268    5.819
C    -2.806    4.932    7.377
O    -2.066    5.226    8.565
C    -2.158    5.612    6.202
C    -1.706    4.534    5.245
N    -0.875    5.174    0.259
C    0.027    5.034    1.29
N    1.315    5.069    0.949
N    -0.321    4.871    2.568
C    -1.667    4.859    2.73
C    -2.636    4.992    1.762
C    -2.254    5.166    0.402
O    -2.984    5.298    -0.578
N    -3.904    4.927    2.334
C    -3.663    4.761    3.603
N    -2.333    4.71    3.923
O    -7.102    3.517    7.072
O    -6.918    4.038    4.57
H    -0.518    5.293    -0.679
H    -4.459    4.671    4.342
H    -0.623    4.581    5.136
H    -2.916    6.244    5.694
H    1.578    5.192    -0.019
H    -3.845    5.247    7.479
H    2.028    4.972    1.657
H    -2.174    2.927    7.872
H    -4.123    1.837    6.821
H    -1.267    6.168    6.56
H    -4.664    3.111    7.933
P    -1.44    6.691    8.797
C    0.923    6.135    7.756
O    -0.34    6.792    7.625
C    2.039    6.928    7.084
O    1.924    6.799    5.661
C    1.841    8.392    7.447
O    3.034    8.898    8.052
C    1.598    9.103    6.145
C    1.65    8.068    5.045
N    -0.57    8.579    0.486
C    0.756    8.697    0.837
N    1.599    8.989    -0.154
N    1.216    8.538    2.08
C    0.223    8.246    2.955
C    -1.121    8.11    2.694
C    -1.601    8.281    1.365
O    -2.758    8.195    0.961
N    -1.813    7.807    3.863
C    -0.883    7.771    4.773
N    0.376    8.027    4.303
O    -0.733    6.692    10.097
O    -2.495    7.693    8.529
H    -0.825    8.716    -0.481
H    -1.099    7.555    5.82
H    2.457    8.315    4.356
H    0.582    9.549    6.166
H    1.251    9.109    -1.094
H    0.987    8.51    8.115
H    2.586    9.089    0.036
H    3.014    6.578    7.422
H    0.859    5.149    7.296
H    2.414    9.837    5.982
H    1.156    6.02    8.814
P    3.421    10.456    7.917
C    5.262    10.28    6.032
O    3.907    10.566    6.386
C    5.724    11.129    4.852
O    4.899    10.85    3.714
C    5.529    12.588    5.237
O    6.768    13.288    5.095
C    4.53    13.134    4.254
C    4.149    12.01    3.32
N    2.7    11.744    3.383
C    2.03    11.585    2.185
O    2.602    11.659    1.101
N    0.673    11.336    2.279
C    -0.059    11.234    3.449
O    -1.267    11.01    3.416
C    0.726    11.415    4.65
C    2.051    11.659    4.585
C    0.045    11.329    6.012
O    4.584    10.722    8.792
O    2.184    11.255    8.069
H    0.168    11.217    1.412
H    2.615    11.79    5.508
H    4.418    12.283    2.3
H    3.625    13.458    4.81
H    5.151    12.67    6.256
H    6.771    10.93    4.624
H    5.346    9.225    5.767
H    -0.841    10.699    5.935
H    -0.245    12.328    6.336
H    0.735    10.897    6.736
H    5.014    13.94    3.664
H    5.904    10.483    6.889
P    6.784    14.872    4.809
C    7.312    14.713    2.226
O    6.353    14.953    3.26
C    7.091    15.636    1.032
O    5.829    15.332    0.423
C    7.033    17.061001    1.562
O    8.007    17.861    0.885
C    5.655    17.561001    1.227
C    4.925    16.444    0.518
N    3.704    16.066    1.253
C    2.561    15.836    0.511
O    2.545    15.938    -0.714
N    1.433    15.483    1.229
C    1.353    15.344    2.604
O    0.294    15.024    3.14
C    2.596    15.604    3.294
C    3.709    15.95    2.616
C    2.649    15.486    4.813
O    8.179    15.35    4.927
O    5.717    15.5    5.62
H    0.589    15.312    0.701
H    4.631    16.139999    3.165
H    4.652    16.773001    -0.484
H    5.121    17.792    2.173
H    7.198    17.077999    2.639
H    7.9    15.529    0.31
H    7.228    13.678    1.897
H    2.19    14.547    5.122
H    2.108    16.32    5.262
H    3.688    15.508    5.144
H    5.747    18.424    0.535
H    8.313    14.88    2.623
P    7.944    19.468    0.964
C    6.751    19.899    -1.352
O    6.649    19.813    0.072
C    5.891    21.028999    -1.908
O    4.508    20.666    -1.806
C    6.132    22.254999    -1.039
O    6.616    23.351999    -1.821
C    4.796    22.575001    -0.426
C    3.803    21.555    -0.929
N    -0.369    19.160999    0.755
C    -0.141    19.790001    -0.448
N    -1.154    19.778999    -1.314
N    1.008    20.386999    -0.772
C    1.923    20.299999    0.224
C    1.782    19.695    1.452
C    0.553    19.061001    1.787
O    0.261    18.48    2.829
N    2.954    19.823999    2.192
C    3.748    20.489    1.403
N    3.197    20.815001    0.193
O    9.137    20.013    0.28
O    7.656    19.851    2.365
H    5.967    23.521999    -2.507
H    -1.271    18.736    0.912
H    4.764    20.76    1.691
H    3.017    22.063    -1.487
H    4.878    22.479    0.677
H    -2.024    19.327    -1.069
H    6.847    22.01    -0.251
H    -1.053    20.223    -2.216
H    6.156    21.237    -2.944
H    6.427    18.955    -1.79
H    4.479    23.582001    -0.771
H    7.791    20.077999    -1.624
C    -9.325    18.921    1.878
O    -9.129    17.509001    2.043
C    -8.691    19.447001    0.601
O    -7.441    20.076    0.914
C    -8.411    18.25    -0.295
O    -9.044    18.445    -1.563
C    -6.919    18.224001    -0.48
C    -6.344    19.386999    0.294
N    -5.379    18.919001    1.305
C    -4.032    19.086    1.028
O    -3.682    19.608    -0.029
N    -3.125    18.66    1.949
C    -3.524    18.094    3.096
N    -2.61    17.688    3.977
C    -4.914    17.919001    3.386
C    -5.803    18.344    2.468
H    -9.985    17.087999    1.938
H    -5.242    17.458    4.318
H    -6.87    18.226999    2.655
H    -5.839    20.063    -0.396
H    -6.523    17.280001    -0.051
H    -8.757    17.327999    0.174
H    -9.359    20.15    0.103
H    -1.627    17.808001    3.777
H    -8.859    19.447001    2.7
H    -2.9    17.259001    4.844
H    -6.69    18.364    -1.557
H    -10.406    19.124001    1.874
P    -9.119    17.245001    -2.633
C    -7.654    18.103001    -4.655
O    -7.722    17.386999    -3.419
C    -6.382    17.767    -5.427
O    -5.242    18.0    -4.59
C    -6.431    16.285    -5.764
O    -6.29    16.112    -7.177
C    -5.249    15.672    -5.065
C    -4.527    16.780001    -4.335
N    -1.442    15.838    -0.357
C    -1.201    16.066999    -1.643
N    -2.056    16.305    -2.624
C    -3.322    16.292999    -2.156
C    -3.722    16.073    -0.867
C    -2.713    15.832    0.08
N    -2.962    15.603    1.369
N    -5.109    16.139    -0.769
C    -5.491    16.393    -1.988
N    -4.465    16.502001    -2.888
O    -10.217    17.537001    -3.582
O    -9.106    15.963    -1.892
H    -0.15    16.058001    -1.93
H    -6.541    16.507999    -2.26
H    -3.514    16.868    -4.725
H    -5.618    14.936    -4.321
H    -7.361    15.84    -5.41
H    -6.317    18.365    -6.337
H    -7.673    19.173    -4.447
H    -2.199    15.435    2.009
H    -3.914    15.597    1.706
H    -4.566    15.244    -5.828
H    -8.519    17.843    -5.265
P    -5.802    14.704    -7.784
C    -3.262    15.398    -7.582
O    -4.327    14.543    -7.158
C    -1.926    14.662    -7.597
O    -1.33    14.732    -6.295
C    -2.214    13.201    -7.911
O    -1.456    12.802    -9.056
C    -1.747    12.43    -6.707
C    -1.199    13.426    -5.712
N    -0.765    12.837    -0.644
C    0.133    12.87    -1.621
N    -0.053    13.028    -2.922
C    -1.367    13.165    -3.194
C    -2.4    13.152    -2.298
C    -2.067    12.977    -0.945
N    -2.974    12.945    0.032
N    -3.617    13.324    -2.953
C    -3.278    13.432    -4.207
N    -1.93    13.347    -4.434
O    -5.669    14.852    -9.251
O    -6.661    13.636    -7.226
H    1.17    12.751    -1.308
H    -4.011    13.579    -5.0
H    -0.145    13.215    -5.535
H    -2.62    11.915    -6.253
H    -3.28    13.046    -8.077
H    -1.261    15.09    -8.346
H    -3.194    16.246    -6.901
H    -2.68    12.816    0.989
H    -3.954    13.049    -0.186
H    -0.928    11.748    -7.017
H    -3.477    15.764    -8.586
P    -0.919    11.29    -9.194
C    1.179    11.838    -7.687
O    -0.038    11.107    -7.859
C    2.247    10.994    -7.0
O    2.058    11.051    -5.58
C    2.049    9.554    -7.45
O    3.265    9.061    -8.019
C    1.731    8.78    -6.201
C    1.743    9.755    -5.046
N    0.437    9.773    -4.362
C    0.443    9.734    -2.977
O    1.508    9.685    -2.367
N    -0.753    9.75    -2.326
C    -1.906    9.802    -3.006
N    -3.059    9.817    -2.338
C    -1.915    9.844    -4.436
C    -0.727    9.827    -5.071
O    -0.012    11.225    -10.361
O    -2.081    10.377    -9.111
H    -2.851    9.887    -4.993
H    -0.696    9.857    -6.16
H    2.515    9.461    -4.336
H    0.711    8.353    -6.296
H    1.229    9.484    -8.166
H    3.244    11.345    -7.268
H    -3.058    9.788    -1.329
H    0.98    12.723    -7.082
H    -3.934    9.856    -2.842
H    2.527    8.024    -6.037
H    1.547    12.151    -8.664
P    3.693    7.521    -7.824
C    5.229    8.033    -5.738
O    4.03    7.447    -6.252
C    5.755    7.265    -4.529
O    4.805    7.354    -3.459
C    5.879    5.805    -4.936
O    7.219    5.359    -4.708
C    4.94    5.052    -4.034
C    4.283    6.059    -3.12
N    2.817    6.028    -3.272
C    2.056    5.983    -2.115
O    2.607    5.97    -1.017
N    0.701    5.953    -2.235
C    0.116    5.967    -3.44
N    -1.214    5.937    -3.522
C    0.898    6.013    -4.637
C    2.238    6.042    -4.508
O    4.946    7.289    -8.578
O    2.508    6.674    -8.084
H    0.426    6.025    -5.619
H    2.866    6.078    -5.398
H    4.54    5.828    -2.086
H    4.157    4.571    -4.656
H    5.599    5.671    -5.982
H    6.722    7.659    -4.216
H    -1.771    5.904    -2.68
H    5.024    9.063    -5.444
H    -1.665    5.947    -4.426
H    5.531    4.342    -3.418
H    5.99    8.03    -6.519
P    7.516    3.82    -4.34
C    7.923    4.217    -1.761
O    7.064    3.734    -2.797
C    7.566    3.608    -0.408
O    6.158    3.753    -0.178
C    7.887    2.123    -0.478
O    8.789    1.781    0.579
C    6.577    1.416    -0.266
C    5.514    2.473    -0.076
N    0.512    1.705    -0.857
C    1.244    1.785    0.248
N    2.546    1.987    0.376
C    3.12    2.118    -0.838
C    2.5    2.06    -2.055
C    1.112    1.84    -2.052
N    0.384    1.761    -3.165
N    3.422    2.24    -3.082
C    4.553    2.399    -2.455
N    4.452    2.338    -1.091
O    8.979    3.602    -4.406
O    6.606    2.968    -5.137
H    0.695    1.667    1.182
H    5.494    2.566    -2.979
H    5.076    2.369    0.916
H    6.337    0.83    -1.178
H    8.311    1.866    -1.449
H    8.135    4.086    0.389
H    7.831    5.301    -1.699
H    -0.612    1.601    -3.107
H    0.827    1.861    -4.067
H    6.645    0.808    0.66
H    8.954    3.96    -2.004
P    8.729    0.325    1.264
C    7.17    0.917    3.312
O    7.301    0.345    2.008
C    6.11    0.193    4.136
O    4.829    0.355    3.513
C    6.46    -1.288    4.128
O    6.577    -1.757    5.474
C    5.301    -1.973    3.458
C    4.298    -0.908    3.082
N    4.056    -0.906    1.627
C    2.742    -0.864    1.201
O    1.8    -0.83    1.989
N    2.548    -0.863    -0.168
C    3.541    -0.9    -1.132
O    3.256    -0.896    -2.327
C    4.882    -0.942    -0.592
C    5.096    -0.944    0.739
C    6.073    -0.985    -1.543
O    9.788    0.256    2.297
O    8.678    -0.691    0.19
H    1.593    -0.833    -0.495
H    6.119    -0.976    1.116
H    3.359    -1.099    3.6
H    5.664    -2.464    2.531
H    7.382    -1.463    3.574
H    6.091    0.576    5.156
H    6.89    1.966    3.214
H    5.833    -1.618    -2.398
H    6.94    -1.392    -1.022
H    6.298    0.023    -1.89
H    4.828    -2.667    4.185
H    8.127    0.851    3.827
P    6.439    -3.326    5.808
C    4.127    -2.918    7.018
O    4.846    -3.519    5.937
C    2.699    -3.447    7.103
O    2.047    -3.263    5.84
C    2.781    -4.94    7.384
O    2.04    -5.243    8.569
C    2.134    -5.609    6.203
C    1.683    -4.523    5.255
N    0.859    -5.163    0.267
C    -0.044    -5.037    1.299
N    -1.332    -5.088    0.958
N    0.302    -4.872    2.577
C    1.647    -4.844    2.739
C    2.618    -4.962    1.77
C    2.238    -5.137    0.41
O    2.969    -5.258    -0.57
N    3.885    -4.881    2.342
C    3.643    -4.721    3.611
N    2.312    -4.688    3.931
O    7.044    -3.573    7.135
O    6.904    -4.093    4.63
H    0.503    -5.285    -0.671
H    4.438    -4.622    4.35
H    0.6    -4.569    5.144
H    2.892    -6.238    5.691
H    -1.594    -5.212    -0.009
H    3.82    -5.256    7.484
H    -2.046    -5.001    1.667
H    2.15    -2.938    7.895
H    4.1    -1.839    6.87
H    1.242    -6.168    6.555
H    4.643    -3.137    7.953
P    1.406    -6.707    8.784
C    -0.967    -6.15    7.766
O    0.304    -6.788    7.612
C    -2.078    -6.945    7.089
O    -1.955    -6.819    5.667
C    -1.88    -8.408    7.457
O    -3.077    -8.915    8.055
C    -1.629    -9.121    6.157
C    -1.677    -8.089    5.055
N    0.562    -8.558    0.501
C    -0.766    -8.672    0.844
N    -1.606    -8.945    -0.155
N    -1.231    -8.525    2.087
C    -0.241    -8.251    2.97
C    1.106    -8.121    2.717
C    1.591    -8.279    1.388
O    2.751    -8.197    0.992
N    1.795    -7.837    3.893
C    0.86    -7.806    4.799
N    -0.399    -8.047    4.319
O    0.7    -6.72    10.085
O    2.455    -7.713    8.503
H    0.822    -8.686    -0.467
H    1.072    -7.605    5.849
H    -2.479    -8.338    4.362
H    -0.613    -9.566    6.185
H    -1.254    -9.056    -1.095
H    -1.03    -8.525    8.13
H    -2.595    -9.041    0.029
H    -3.056    -6.596    7.421
H    -0.921    -5.154    7.324
H    -2.443    -9.857    5.991
H    -1.192    -6.058    8.828
P    -3.473    -10.468    7.9
C    -5.274    -10.261    5.98
O    -3.928    -10.563    6.359
C    -5.733    -11.124    4.809
O    -4.901    -10.862    3.671
C    -5.544    -12.578    5.213
O    -6.785    -13.276    5.076
C    -4.542    -13.141    4.242
C    -4.154    -12.03    3.295
N    -2.704    -11.768    3.36
C    -2.026    -11.642    2.163
O    -2.593    -11.741    1.077
N    -0.669    -11.396    2.258
C    0.056    -11.268    3.43
O    1.265    -11.049    3.399
C    -0.737    -11.415    4.63
C    -2.062    -11.655    4.563
C    -0.064    -11.297    5.993
O    -4.656    -10.731    8.75
O    -2.246    -11.278    8.072
H    -0.159    -11.301    1.391
H    -2.633    -11.761    5.486
H    -4.42    -12.315    2.278
H    -3.641    -13.46    4.806
H    -5.17    -12.648    6.235
H    -6.778    -10.925    4.574
H    -5.335    -9.211    5.695
H    0.814    -10.657    5.911
H    0.239    -12.287    6.336
H    -0.763    -10.863    6.708
H    -5.027    -13.953    3.661
H    -5.931    -10.438    6.831
P    -6.804    -14.86    4.787
C    -7.325    -14.702    2.203
O    -6.368    -14.94    3.239
C    -7.1    -15.626    1.01
O    -5.836    -15.322    0.405
C    -7.044    -17.049999    1.541
O    -8.016    -17.851    0.862
C    -5.665    -17.549999    1.211
C    -4.933    -16.434    0.503
N    -3.714    -16.056    1.241
C    -2.567    -15.831    0.503
O    -2.546    -15.938    -0.721
N    -1.442    -15.477    1.224
C    -1.366    -15.332    2.599
O    -0.309    -15.013    3.138
C    -2.613    -15.587    3.285
C    -3.724    -15.933    2.604
C    -2.672    -15.463    4.804
O    -8.201    -15.335    4.901
O    -5.741    -15.492    5.6
H    -0.595    -15.31    0.699
H    -4.649    -16.118999    3.15
H    -4.657    -16.763    -0.498
H    -5.133    -17.781    2.159
H    -7.212    -17.066999    2.618
H    -7.907    -15.519    0.286
H    -7.241    -13.667    1.873
H    -2.225    -14.517    5.109
H    -2.122    -16.288    5.258
H    -3.711    -15.495    5.131
H    -5.754    -18.413    0.519
H    -8.327    -14.87    2.598
P    -7.952    -19.457001    0.943
C    -6.785    -19.906    -1.383
O    -6.666    -19.804001    0.038
C    -5.911    -21.025    -1.939
O    -4.532    -20.646    -1.837
C    -6.138    -22.254    -1.071
O    -6.608    -23.357    -1.853
C    -4.798    -22.559    -0.458
C    -3.817    -21.527    -0.961
N    0.356    -19.160999    0.762
C    0.14    -19.802    -0.437
N    1.167    -19.813999    -1.287
N    -1.011    -20.389    -0.773
C    -1.941    -20.280001    0.207
C    -1.812    -19.66    1.43
C    -0.581    -19.038    1.777
O    -0.299    -18.445999    2.817
N    -2.997    -19.766001    2.153
C    -3.786    -20.431999    1.359
N    -3.22    -20.778999    0.162
O    -9.152    -20.003    0.27
O    -7.652    -19.839001    2.341
H    -5.96    -23.514    -2.544
H    1.261    -18.745001    0.928
H    -4.81    -20.687    1.633
H    -3.024    -22.025    -1.519
H    -4.881    -22.462999    0.645
H    2.038    -19.370001    -1.033
H    -6.856    -22.018    -0.283
H    1.075    -20.268    -2.184
H    -6.173    -21.236    -2.976
H    -6.483    -18.959999    -1.834
H    -4.468    -23.561001    -0.803
H    -7.825    -20.107    -1.64
